/*---------------------------------------------------------------------------*\
| =========                 |                                                 |
| \\      /  F ield         | OpenFOAM: The Open Source CFD Toolbox           |
|  \\    /   O peration     | Version:  2306                                  |
|   \\  /    A nd           | Website:  www.openfoam.com                      |
|    \\/     M anipulation  |                                                 |
\*---------------------------------------------------------------------------*/
Build  : _fbf00d6b-20230626 OPENFOAM=2306 version=2306
Arch   : "LSB;label=32;scalar=64"
Exec   : interFoam
Date   : Aug 21 2023
Time   : 21:23:53
Host   : ed3761f2412e
PID    : 1417
I/O    : uncollated
Case   : /data/eun/foam-v2306/foamMooring/tutorial/sixDoF_2D/deformMesh
nProcs : 1
trapFpe: Floating point exception trapping enabled (FOAM_SIGFPE).
fileModificationChecking : Monitoring run-time modified files using timeStampMaster (fileModificationSkew 5, maxFileModificationPolls 20)
allowSystemOperations : Allowing user-supplied system call operations

// * * * * * * * * * * * * * * * * * * * * * * * * * * * * * * * * * * * * * //
Create time

Create mesh for time = 0

Selecting dynamicFvMesh dynamicMotionSolverFvMesh
Selecting motion solver: sixDoFRigidBodyMotion
Applying motion to entire mesh
Selecting sixDoFSolver Newmark

 Running MoorDyn (v2.a10, 2022-01-01)
   NOTE: This is an alpha version of MoorDyn v2, intended for testing and debugging.
         MoorDyn v2 has significant ongoing input file changes from v1.
   Copyright: (C) 2021 National Renewable Energy Laboratory, (C) 2014-2019 Matt Hall
   This program is released under the GNU General Public License v3.
The filename is Mooring/lines_v2.txt
Generated entities:
	nLineTypes  = 1
	nRodTypes   = 0
	nPoints     = 8
	nBodies     = 1
	nRods       = 0
	nLines      = 4
	nFails      = 0
	nFreeBodies = 0
	nFreeRods   = 0
	nFreePoints  = 0
	nCpldBodies = 1
	nCpldRods   = 0
	nCpldPoints = 0
Time integrator = 2nd order Runge-Kutta
No Waves or Currents, or set externally
Create moorDynR2 using MoorDyn v2.
Translational constraint tensor (1 -0 -0 -0 0 -0 -0 -0 1)
Rotational constraint tensor (0 0 0 0 1 0 0 0 0)

PIMPLE: no residual control data found. Calculations will employ 3 corrector loops

Reading field p_rgh

Reading field U

Reading/calculating face flux field phi

Reading transportProperties

Selecting incompressible transport model Newtonian
Selecting incompressible transport model Newtonian
Selecting turbulence model type laminar
Selecting laminar stress model Stokes

Reading g

Reading hRef
Calculating field g.h

No MRF models present

No finite volume options present
GAMGPCG:  Solving for pcorr, Initial residual = 0, Final residual = 0, No Iterations 0
GAMGPCG:  Solving for pcorr, Initial residual = 0, Final residual = 0, No Iterations 0
time step continuity errors : sum local = 0, global = 0, cumulative = 0
Constructing face velocity Uf

Courant Number mean: 0 max: 0

Starting time loop

Courant Number mean: 0 max: 0
Interface Courant Number mean: 0 max: 0
deltaT = 0.00119048
Time = 0.00119048

PIMPLE: iteration 1
forces forces:
    rho: rho
    Not including porosity effects

Restraint moorDynR2: Creating mooring system...
Initializing coupled Body 0 in 0, 0, -0.016...
  - Line1:
    ID: 1
    UnstrLen: 1.455
    N   : 40
    d   : 0.003656
    rho : 5782.11
    E   : 2.76246e+06
    EI  : 0
    BAin: -1
    Can : 1
    Cat : 0
    Cdn : 1.6
    Cdt : 0.05
    ww_l: 0.489908
Line 1 damping set to 4597.21 Ns = 0.048261 Pa-s, based on input of -1
WRN /data/eun/foam-v2306/foamMooring/thirdParty/MoorDyn/source/Line.cpp:498 initialize(): Wrong catenary initial profile for Line, intializing as linear 1
Initialized Line 1
  - Line2:
    ID: 2
    UnstrLen: 1.455
    N   : 40
    d   : 0.003656
    rho : 5782.11
    E   : 2.76246e+06
    EI  : 0
    BAin: -1
    Can : 1
    Cat : 0
    Cdn : 1.6
    Cdt : 0.05
    ww_l: 0.489908
Line 2 damping set to 4597.21 Ns = 0.048261 Pa-s, based on input of -1
WRN /data/eun/foam-v2306/foamMooring/thirdParty/MoorDyn/source/Line.cpp:498 initialize(): Wrong catenary initial profile for Line, intializing as linear 2
Initialized Line 2
  - Line3:
    ID: 3
    UnstrLen: 1.455
    N   : 40
    d   : 0.003656
    rho : 5782.11
    E   : 2.76246e+06
    EI  : 0
    BAin: -1
    Can : 1
    Cat : 0
    Cdn : 1.6
    Cdt : 0.05
    ww_l: 0.489908
Line 3 damping set to 4597.21 Ns = 0.048261 Pa-s, based on input of -1
WRN /data/eun/foam-v2306/foamMooring/thirdParty/MoorDyn/source/Line.cpp:498 initialize(): Wrong catenary initial profile for Line, intializing as linear 3
Initialized Line 3
  - Line4:
    ID: 4
    UnstrLen: 1.455
    N   : 40
    d   : 0.003656
    rho : 5782.11
    E   : 2.76246e+06
    EI  : 0
    BAin: -1
    Can : 1
    Cat : 0
    Cdn : 1.6
    Cdt : 0.05
    ww_l: 0.489908
Line 4 damping set to 4597.21 Ns = 0.048261 Pa-s, based on input of -1
WRN /data/eun/foam-v2306/foamMooring/thirdParty/MoorDyn/source/Line.cpp:498 initialize(): Wrong catenary initial profile for Line, intializing as linear 4
Initialized Line 4
Finalizing ICs using dynamic relaxation (5X normal drag)
WRN /data/eun/foam-v2306/foamMooring/thirdParty/MoorDyn/source/MoorDyn2.cpp:384 Init(): Fairlead tensions did not converged
Remaining error after 5.1 s = 0.444406% on line 1
Best score at 4.7 s = 0.312222% on line 1
No Waves or Currents, or set externally
MoorDyn module initialized!
MoorDyn module saved at t = 0 s
X[6]: (0 0 -0.016), (0 0 0)
XD[6]: (0 0 0), (0 0 0)
0.00119048: force (0 0 -1.73977), moment (0 0 0)
6-DoF rigid body motion
    Centre of rotation: (6.2478e-24 0 -0.016)
    Centre of mass: (6.2478e-24 0 -0.016)
    Orientation: (1 0 -5.45161e-22 0 1 0 5.45161e-22 0 1)
    Linear velocity: (1.04963e-20 0 -8.04046e-05)
    Angular velocity: (0 -9.15871e-19 0)
Selecting waveModel StokesII
Wave model: patch inlet
    Type : StokesII
    Velocity field name : U
    Phase fraction field name : alpha.water
    Transformation from local to global system : (1 -0 -0 0 1 0 -0 -0 1)
    Number of paddles: 1
    Reference water depth : 0.495
    Active absorption: 1
    Ramp time : 2
    Wave height : 0.12
    Wave angle  : 0
    Wave period : 2
    Wave length : 4.0398
    Wave phase : 4.71239
    Wave type: Intermediate
Updating StokesII wave model for patch inlet
Selecting waveModel shallowWaterAbsorption
Wave model: patch outlet
    Type : shallowWaterAbsorption
    Velocity field name : U
    Phase fraction field name : alpha.water
    Transformation from local to global system : (-1 -0 -0 0 -1 0 -0 -0 1)
    Number of paddles: 1
    Reference water depth : 0.495
    Active absorption: 1
Updating shallowWaterAbsorption wave model for patch outlet
GAMGPCG:  Solving for pcorr, Initial residual = 1, Final residual = 8.18213e-06, No Iterations 11
GAMGPCG:  Solving for pcorr, Initial residual = 4.21998e-08, Final residual = 4.21998e-08, No Iterations 0
time step continuity errors : sum local = 1.33467e-13, global = 3.72851e-14, cumulative = 3.72851e-14
smoothSolver:  Solving for alpha.water, Initial residual = 1.73439e-08, Final residual = 3.64156e-17, No Iterations 1
Phase-1 volume fraction = 0.517059  Min(alpha.water) = 0  Max(alpha.water) = 1
MULES: Correcting alpha.water
MULES: Correcting alpha.water
Phase-1 volume fraction = 0.517059  Min(alpha.water) = -5.2038e-23  Max(alpha.water) = 1
GAMG:  Solving for p_rgh, Initial residual = 1, Final residual = 0.00417596, No Iterations 1
GAMGPCG:  Solving for p_rgh, Initial residual = 0.00171814, Final residual = 4.17948e-09, No Iterations 5
time step continuity errors : sum local = 6.55682e-11, global = 3.52931e-12, cumulative = 3.5666e-12
PIMPLE: iteration 2
forces forces:
    rho: rho
    Not including porosity effects

Restraint moorDynR2: MoorDyn module restored to t = 0 s
X[6]: (6.2478e-24 0 -0.016), (0 -5.45161e-22 0)
XD[6]: (1.04963e-20 0 -8.04046e-05), (0 -9.15871e-19 0)
0.00119048: force (0 0 -1.73946), moment (0 0 0)
6-DoF rigid body motion
    Centre of rotation: (1.53535e-13 0 -0.0160002)
    Centre of mass: (1.53535e-13 0 -0.0160002)
    Orientation: (1 0 1.59858e-12 0 1 0 -1.59858e-12 0 1)
    Linear velocity: (2.57938e-10 0 -0.000353664)
    Angular velocity: (0 2.68561e-09 0)
GAMGPCG:  Solving for pcorr, Initial residual = 1, Final residual = 4.2511e-06, No Iterations 10
GAMGPCG:  Solving for pcorr, Initial residual = 2.17089e-10, Final residual = 2.17089e-10, No Iterations 0
time step continuity errors : sum local = 3.10826e-14, global = -6.74257e-15, cumulative = 3.55985e-12
smoothSolver:  Solving for alpha.water, Initial residual = 1.60969e-08, Final residual = 3.7655e-17, No Iterations 1
Phase-1 volume fraction = 0.517059  Min(alpha.water) = 0  Max(alpha.water) = 1
Applying the previous iteration compression flux
MULES: Correcting alpha.water
MULES: Correcting alpha.water
MULES: Correcting alpha.water
Phase-1 volume fraction = 0.517059  Min(alpha.water) = -1.27431e-21  Max(alpha.water) = 1
GAMG:  Solving for p_rgh, Initial residual = 1.2317e-06, Final residual = 9.65278e-09, No Iterations 5
GAMGPCG:  Solving for p_rgh, Initial residual = 9.70532e-09, Final residual = 9.70532e-09, No Iterations 0
time step continuity errors : sum local = 2.50409e-10, global = -8.34498e-11, cumulative = -7.98899e-11
PIMPLE: iteration 3
forces forces:
    rho: rho
    Not including porosity effects

Restraint moorDynR2: MoorDyn module restored to t = 0 s
X[6]: (1.53535e-13 0 -0.0160002), (0 1.59858e-12 0)
XD[6]: (2.57938e-10 0 -0.000353664), (0 2.68561e-09 0)
0.00119048: force (-1.10533e-09 0 -1.73842), moment (0 -9.38769e-11 0)
6-DoF rigid body motion
    Centre of rotation: (8.40273e-12 0 -0.0160002)
    Centre of mass: (8.40273e-12 0 -0.0160002)
    Orientation: (1 0 1.0532e-10 0 1 0 -1.0532e-10 0 1)
    Linear velocity: (1.41166e-08 0 -0.000329938)
    Angular velocity: (0 1.76938e-07 0)
GAMGPCG:  Solving for pcorr, Initial residual = 1, Final residual = 2.04399e-06, No Iterations 10
GAMGPCG:  Solving for pcorr, Initial residual = 1.91414e-10, Final residual = 1.91414e-10, No Iterations 0
time step continuity errors : sum local = 1.86535e-15, global = 6.14589e-16, cumulative = -7.98893e-11
smoothSolver:  Solving for alpha.water, Initial residual = 8.91396e-10, Final residual = 8.91396e-10, No Iterations 0
Phase-1 volume fraction = 0.517059  Min(alpha.water) = -1.27431e-21  Max(alpha.water) = 1
Applying the previous iteration compression flux
MULES: Correcting alpha.water
MULES: Correcting alpha.water
MULES: Correcting alpha.water
Phase-1 volume fraction = 0.517059  Min(alpha.water) = -2.38751e-22  Max(alpha.water) = 1
GAMG:  Solving for p_rgh, Initial residual = 6.07835e-08, Final residual = 9.17838e-09, No Iterations 2
GAMGPCG:  Solving for p_rgh, Initial residual = 9.17677e-09, Final residual = 9.17677e-09, No Iterations 0
time step continuity errors : sum local = 2.36813e-10, global = -2.10556e-12, cumulative = -8.19949e-11
ExecutionTime = 8.91 s  ClockTime = 9 s

Courant Number mean: 2.33058e-06 max: 0.000103223
Interface Courant Number mean: 0 max: 0
deltaT = 0.00143557
Time = 0.00262605

PIMPLE: iteration 1
forces forces:
    rho: rho
    Not including porosity effects

Restraint moorDynR2: MoorDyn module saved at t = 0.00119048 s
X[6]: (8.40273e-12 0 -0.0160002), (0 1.0532e-10 0)
XD[6]: (1.41166e-08 0 -0.000329938), (0 1.76938e-07 0)
0.00262605: force (-6.42284e-08 0 -1.73894), moment (0 -5.5323e-09 0)
6-DoF rigid body motion
    Centre of rotation: (2.96094e-11 0 -0.0160012)
    Centre of mass: (2.96094e-11 0 -0.0160012)
    Orientation: (1 0 4.28019e-10 0 1 0 -4.28019e-10 0 1)
    Linear velocity: (1.54279e-08 0 -0.00112647)
    Angular velocity: (0 2.72636e-07 0)
Updating StokesII wave model for patch inlet
Updating shallowWaterAbsorption wave model for patch outlet
GAMGPCG:  Solving for pcorr, Initial residual = 1, Final residual = 4.3277e-06, No Iterations 11
GAMGPCG:  Solving for pcorr, Initial residual = 2.83274e-10, Final residual = 2.83274e-10, No Iterations 0
time step continuity errors : sum local = 6.08815e-13, global = 2.3694e-14, cumulative = -8.19712e-11
smoothSolver:  Solving for alpha.water, Initial residual = 1.94918e-07, Final residual = 1.26639e-16, No Iterations 1
Phase-1 volume fraction = 0.517059  Min(alpha.water) = 0  Max(alpha.water) = 1
Applying the previous iteration compression flux
MULES: Correcting alpha.water
MULES: Correcting alpha.water
MULES: Correcting alpha.water
Phase-1 volume fraction = 0.517059  Min(alpha.water) = -1.55922e-19  Max(alpha.water) = 1
GAMG:  Solving for p_rgh, Initial residual = 1.125e-05, Final residual = 8.17836e-08, No Iterations 6
GAMGPCG:  Solving for p_rgh, Initial residual = 8.88015e-08, Final residual = 1.02172e-09, No Iterations 2
time step continuity errors : sum local = 1.8501e-11, global = -2.17489e-12, cumulative = -8.41461e-11
PIMPLE: iteration 2
forces forces:
    rho: rho
    Not including porosity effects

Restraint moorDynR2: MoorDyn module restored to t = 0.00119048 s
X[6]: (2.96094e-11 0 -0.0160012), (0 4.28019e-10 0)
XD[6]: (1.54279e-08 0 -0.00112647), (0 2.72636e-07 0)
0.00262605: force (-1.05228e-07 0 -1.73547), moment (0 -9.28824e-09 0)
6-DoF rigid body motion
    Centre of rotation: (5.98453e-11 0 -0.0160005)
    Centre of mass: (5.98453e-11 0 -0.0160005)
    Orientation: (1 0 6.45024e-10 0 1 0 -6.45024e-10 0 1)
    Linear velocity: (5.75517e-08 0 -7.36441e-05)
    Angular velocity: (0 5.74962e-07 0)
GAMGPCG:  Solving for pcorr, Initial residual = 1, Final residual = 3.67936e-06, No Iterations 10
GAMGPCG:  Solving for pcorr, Initial residual = 2.3934e-10, Final residual = 2.3934e-10, No Iterations 0
time step continuity errors : sum local = 3.02576e-13, global = -6.00735e-15, cumulative = -8.41521e-11
smoothSolver:  Solving for alpha.water, Initial residual = 4.76099e-08, Final residual = 3.70694e-17, No Iterations 1
Phase-1 volume fraction = 0.517059  Min(alpha.water) = 0  Max(alpha.water) = 1
Applying the previous iteration compression flux
MULES: Correcting alpha.water
MULES: Correcting alpha.water
MULES: Correcting alpha.water
Phase-1 volume fraction = 0.517059  Min(alpha.water) = -8.44073e-19  Max(alpha.water) = 1
GAMG:  Solving for p_rgh, Initial residual = 8.50461e-06, Final residual = 6.58575e-08, No Iterations 6
GAMGPCG:  Solving for p_rgh, Initial residual = 6.16111e-08, Final residual = 9.47461e-09, No Iterations 1
time step continuity errors : sum local = 1.83596e-10, global = 6.3965e-12, cumulative = -7.77556e-11
PIMPLE: iteration 3
forces forces:
    rho: rho
    Not including porosity effects

Restraint moorDynR2: MoorDyn module restored to t = 0.00119048 s
X[6]: (5.98453e-11 0 -0.0160005), (0 6.45024e-10 0)
XD[6]: (5.75517e-08 0 -7.36441e-05), (0 5.74962e-07 0)
0.00262605: force (-2.61752e-07 0 -1.73953), moment (0 -2.23607e-08 0)
6-DoF rigid body motion
    Centre of rotation: (4.482e-11 0 -0.0160011)
    Centre of mass: (4.482e-11 0 -0.0160011)
    Orientation: (1 0 5.33853e-10 0 1 0 -5.33853e-10 0 1)
    Linear velocity: (3.66189e-08 0 -0.000959401)
    Angular velocity: (0 4.2008e-07 0)
GAMGPCG:  Solving for pcorr, Initial residual = 1, Final residual = 3.59554e-06, No Iterations 10
GAMGPCG:  Solving for pcorr, Initial residual = 3.46856e-10, Final residual = 3.46856e-10, No Iterations 0
time step continuity errors : sum local = 3.68982e-13, global = -2.05548e-14, cumulative = -7.77761e-11
smoothSolver:  Solving for alpha.water, Initial residual = 1.25653e-07, Final residual = 1.0429e-16, No Iterations 1
Phase-1 volume fraction = 0.517059  Min(alpha.water) = -9.12505e-173  Max(alpha.water) = 1
Applying the previous iteration compression flux
MULES: Correcting alpha.water
MULES: Correcting alpha.water
MULES: Correcting alpha.water
Phase-1 volume fraction = 0.517059  Min(alpha.water) = -6.60875e-19  Max(alpha.water) = 1.00005
GAMG:  Solving for p_rgh, Initial residual = 5.50584e-06, Final residual = 5.18233e-08, No Iterations 6
GAMGPCG:  Solving for p_rgh, Initial residual = 5.47968e-08, Final residual = 8.23274e-09, No Iterations 1
time step continuity errors : sum local = 1.50881e-10, global = -3.00239e-12, cumulative = -8.07785e-11
ExecutionTime = 10.02 s  ClockTime = 10 s

Courant Number mean: 1.00814e-05 max: 0.000485965
Interface Courant Number mean: 0 max: 0
deltaT = 0.00169193
Time = 0.00431798

PIMPLE: iteration 1
forces forces:
    rho: rho
    Not including porosity effects

Restraint moorDynR2: MoorDyn module saved at t = 0.00262605 s
X[6]: (4.482e-11 0 -0.0160011), (0 5.33853e-10 0)
XD[6]: (3.66189e-08 0 -0.000959401), (0 4.2008e-07 0)
0.00431798: force (-8.39958e-08 0 -1.73621), moment (0 -7.57589e-09 0)
6-DoF rigid body motion
    Centre of rotation: (1.57294e-10 0 -0.0160025)
    Centre of mass: (1.57294e-10 0 -0.0160025)
    Orientation: (1 0 1.58931e-09 0 1 0 -1.58931e-09 0 1)
    Linear velocity: (9.6335e-08 0 -0.000627267)
    Angular velocity: (0 8.27555e-07 0)
Updating StokesII wave model for patch inlet
Updating shallowWaterAbsorption wave model for patch outlet
GAMGPCG:  Solving for pcorr, Initial residual = 1, Final residual = 4.88079e-06, No Iterations 11
GAMGPCG:  Solving for pcorr, Initial residual = 2.31777e-09, Final residual = 2.31777e-09, No Iterations 0
time step continuity errors : sum local = 6.33132e-13, global = 2.81944e-14, cumulative = -8.07503e-11
smoothSolver:  Solving for alpha.water, Initial residual = 1.42981e-07, Final residual = 5.37866e-17, No Iterations 1
Phase-1 volume fraction = 0.517059  Min(alpha.water) = 0  Max(alpha.water) = 1.00005
Applying the previous iteration compression flux
MULES: Correcting alpha.water
MULES: Correcting alpha.water
MULES: Correcting alpha.water
Phase-1 volume fraction = 0.517059  Min(alpha.water) = -1.44064e-17  Max(alpha.water) = 1.00006
GAMG:  Solving for p_rgh, Initial residual = 1.66254e-05, Final residual = 1.02295e-07, No Iterations 7
GAMGPCG:  Solving for p_rgh, Initial residual = 8.55628e-08, Final residual = 8.90686e-10, No Iterations 2
time step continuity errors : sum local = 2.69706e-11, global = 5.81463e-12, cumulative = -7.49357e-11
PIMPLE: iteration 2
forces forces:
    rho: rho
    Not including porosity effects

Restraint moorDynR2: MoorDyn module restored to t = 0.00262605 s
X[6]: (1.57294e-10 0 -0.0160025), (0 1.58931e-09 0)
XD[6]: (9.6335e-08 0 -0.000627267), (0 8.27555e-07 0)
0.00431798: force (-3.53422e-07 0 -1.73632), moment (0 -3.03489e-08 0)
6-DoF rigid body motion
    Centre of rotation: (6.46621e-11 0 -0.0160047)
    Centre of mass: (6.46621e-11 0 -0.0160047)
    Orientation: (1 0 9.40641e-10 0 1 0 -9.40641e-10 0 1)
    Linear velocity: (-1.31639e-08 0 -0.00326458)
    Angular velocity: (0 6.07777e-08 0)
GAMGPCG:  Solving for pcorr, Initial residual = 1, Final residual = 4.29606e-06, No Iterations 10
GAMGPCG:  Solving for pcorr, Initial residual = 9.8766e-10, Final residual = 9.8766e-10, No Iterations 0
time step continuity errors : sum local = 3.68607e-12, global = -1.77218e-13, cumulative = -7.51129e-11
smoothSolver:  Solving for alpha.water, Initial residual = 2.57648e-07, Final residual = 6.63766e-16, No Iterations 1
Phase-1 volume fraction = 0.517059  Min(alpha.water) = 0  Max(alpha.water) = 1.00005
Applying the previous iteration compression flux
MULES: Correcting alpha.water
MULES: Correcting alpha.water
MULES: Correcting alpha.water
Phase-1 volume fraction = 0.517059  Min(alpha.water) = -4.36196e-18  Max(alpha.water) = 1.00018
GAMG:  Solving for p_rgh, Initial residual = 1.4062e-05, Final residual = 1.27558e-07, No Iterations 6
GAMGPCG:  Solving for p_rgh, Initial residual = 1.45279e-07, Final residual = 1.78895e-09, No Iterations 2
time step continuity errors : sum local = 4.73917e-11, global = 6.6009e-12, cumulative = -6.8512e-11
PIMPLE: iteration 3
forces forces:
    rho: rho
    Not including porosity effects

Restraint moorDynR2: MoorDyn module restored to t = 0.00262605 s
X[6]: (6.46621e-11 0 -0.0160047), (0 9.40641e-10 0)
XD[6]: (-1.31639e-08 0 -0.00326458), (0 6.07777e-08 0)
0.00431798: force (5.07896e-08 0 -1.7261), moment (0 3.37666e-09 0)
6-DoF rigid body motion
    Centre of rotation: (6.22588e-11 0 -0.0160028)
    Centre of mass: (6.22588e-11 0 -0.0160028)
    Orientation: (1 0 9.38317e-10 0 1 0 -9.38317e-10 0 1)
    Linear velocity: (-1.60048e-08 0 -0.0010446)
    Angular velocity: (0 5.80311e-08 0)
GAMGPCG:  Solving for pcorr, Initial residual = 1, Final residual = 4.28873e-06, No Iterations 10
GAMGPCG:  Solving for pcorr, Initial residual = 6.57053e-10, Final residual = 6.57053e-10, No Iterations 0
time step continuity errors : sum local = 2.06447e-12, global = 1.4932e-13, cumulative = -6.83627e-11
smoothSolver:  Solving for alpha.water, Initial residual = 3.16226e-07, Final residual = 4.22019e-16, No Iterations 1
Phase-1 volume fraction = 0.517059  Min(alpha.water) = 0  Max(alpha.water) = 1.00005
Applying the previous iteration compression flux
MULES: Correcting alpha.water
MULES: Correcting alpha.water
MULES: Correcting alpha.water
Phase-1 volume fraction = 0.517059  Min(alpha.water) = -2.38717e-17  Max(alpha.water) = 1.00005
GAMG:  Solving for p_rgh, Initial residual = 1.32823e-05, Final residual = 8.69398e-08, No Iterations 6
GAMGPCG:  Solving for p_rgh, Initial residual = 7.78013e-08, Final residual = 8.97988e-10, No Iterations 2
time step continuity errors : sum local = 2.66233e-11, global = -2.14739e-12, cumulative = -7.05101e-11
ExecutionTime = 11.19 s  ClockTime = 11 s

Courant Number mean: 1.39652e-05 max: 0.000580616
Interface Courant Number mean: 0 max: 0
deltaT = 0.00198617
Time = 0.00630415

PIMPLE: iteration 1
forces forces:
    rho: rho
    Not including porosity effects

Restraint moorDynR2: MoorDyn module saved at t = 0.00431798 s
X[6]: (6.22588e-11 0 -0.0160028), (0 9.38317e-10 0)
XD[6]: (-1.60048e-08 0 -0.0010446), (0 5.80311e-08 0)
0.00630415: force (3.1044e-08 0 -1.73973), moment (0 1.6641e-09 0)
6-DoF rigid body motion
    Centre of rotation: (-1.1247e-10 0 -0.0160066)
    Centre of mass: (-1.1247e-10 0 -0.0160066)
    Orientation: (1 0 7.14363e-11 0 1 0 -7.14363e-11 0 1)
    Linear velocity: (-1.5994e-07 0 -0.00279895)
    Angular velocity: (-0 -9.30946e-07 0)
Updating StokesII wave model for patch inlet
Updating shallowWaterAbsorption wave model for patch outlet
GAMGPCG:  Solving for pcorr, Initial residual = 1, Final residual = 3.80901e-06, No Iterations 11
GAMGPCG:  Solving for pcorr, Initial residual = 9.5194e-10, Final residual = 9.5194e-10, No Iterations 0
time step continuity errors : sum local = 4.45733e-12, global = 4.10569e-14, cumulative = -7.0469e-11
smoothSolver:  Solving for alpha.water, Initial residual = 3.42575e-07, Final residual = 5.93214e-16, No Iterations 1
Phase-1 volume fraction = 0.517059  Min(alpha.water) = 0  Max(alpha.water) = 1.00005
Applying the previous iteration compression flux
MULES: Correcting alpha.water
MULES: Correcting alpha.water
MULES: Correcting alpha.water
Phase-1 volume fraction = 0.517059  Min(alpha.water) = -8.34759e-18  Max(alpha.water) = 1.00025
GAMG:  Solving for p_rgh, Initial residual = 2.76662e-05, Final residual = 2.25425e-07, No Iterations 6
GAMGPCG:  Solving for p_rgh, Initial residual = 2.87947e-07, Final residual = 3.37579e-09, No Iterations 2
time step continuity errors : sum local = 1.07178e-10, global = -3.38433e-12, cumulative = -7.38533e-11
PIMPLE: iteration 2
forces forces:
    rho: rho
    Not including porosity effects

Restraint moorDynR2: MoorDyn module restored to t = 0.00431798 s
X[6]: (-1.1247e-10 0 -0.0160066), (0 7.14363e-11 0)
XD[6]: (-1.5994e-07 0 -0.00279895), (-0 -9.30946e-07 0)
0.00630415: force (5.67553e-07 0 -1.73167), moment (0 4.60059e-08 0)
6-DoF rigid body motion
    Centre of rotation: (3.39611e-11 0 -0.0160024)
    Centre of mass: (3.39611e-11 0 -0.0160024)
    Orientation: (1 0 1.11364e-09 0 1 0 -1.11364e-09 0 1)
    Linear velocity: (-1.24899e-08 0 0.00150402)
    Angular velocity: (0 1.18507e-07 0)
GAMGPCG:  Solving for pcorr, Initial residual = 1, Final residual = 3.81477e-06, No Iterations 10
GAMGPCG:  Solving for pcorr, Initial residual = 5.57789e-10, Final residual = 5.57789e-10, No Iterations 0
time step continuity errors : sum local = 3.98771e-12, global = 8.47863e-14, cumulative = -7.37686e-11
smoothSolver:  Solving for alpha.water, Initial residual = 5.13308e-07, Final residual = 6.36248e-17, No Iterations 1
Phase-1 volume fraction = 0.517059  Min(alpha.water) = -2.387e-17  Max(alpha.water) = 1.00004
Applying the previous iteration compression flux
MULES: Correcting alpha.water
MULES: Correcting alpha.water
MULES: Correcting alpha.water
Phase-1 volume fraction = 0.517059  Min(alpha.water) = -2.37358e-17  Max(alpha.water) = 1.00006
GAMG:  Solving for p_rgh, Initial residual = 3.04615e-05, Final residual = 2.2169e-07, No Iterations 6
GAMGPCG:  Solving for p_rgh, Initial residual = 1.81362e-07, Final residual = 2.13539e-09, No Iterations 2
time step continuity errors : sum local = 8.29181e-11, global = -8.96495e-12, cumulative = -8.27335e-11
PIMPLE: iteration 3
forces forces:
    rho: rho
    Not including porosity effects

Restraint moorDynR2: MoorDyn module restored to t = 0.00431798 s
X[6]: (3.39611e-11 0 -0.0160024), (0 1.11364e-09 0)
XD[6]: (-1.24899e-08 0 0.00150402), (0 1.18507e-07 0)
0.00630415: force (2.13051e-08 0 -1.74833), moment (0 3.5332e-10 0)
6-DoF rigid body motion
    Centre of rotation: (3.30589e-11 0 -0.016006)
    Centre of mass: (3.30589e-11 0 -0.016006)
    Orientation: (1 0 1.07799e-09 0 1 0 -1.07799e-09 0 1)
    Linear velocity: (-1.33984e-08 0 -0.00211916)
    Angular velocity: (0 8.26178e-08 0)
GAMGPCG:  Solving for pcorr, Initial residual = 1, Final residual = 3.9815e-06, No Iterations 10
GAMGPCG:  Solving for pcorr, Initial residual = 1.20155e-09, Final residual = 1.20155e-09, No Iterations 0
time step continuity errors : sum local = 7.23073e-12, global = -1.77824e-13, cumulative = -8.29113e-11
smoothSolver:  Solving for alpha.water, Initial residual = 5.04671e-07, Final residual = 1.28482e-15, No Iterations 1
Phase-1 volume fraction = 0.517059  Min(alpha.water) = 0  Max(alpha.water) = 1.00005
Applying the previous iteration compression flux
MULES: Correcting alpha.water
MULES: Correcting alpha.water
MULES: Correcting alpha.water
Phase-1 volume fraction = 0.517059  Min(alpha.water) = -2.51862e-17  Max(alpha.water) = 1.0002
GAMG:  Solving for p_rgh, Initial residual = 2.06422e-05, Final residual = 1.51181e-07, No Iterations 6
GAMGPCG:  Solving for p_rgh, Initial residual = 1.78498e-07, Final residual = 2.12223e-09, No Iterations 2
time step continuity errors : sum local = 6.979e-11, global = 7.6546e-12, cumulative = -7.52567e-11
ExecutionTime = 12.35 s  ClockTime = 12 s

Courant Number mean: 2.97573e-05 max: 0.00136645
Interface Courant Number mean: 0 max: 0
deltaT = 0.00242755
Time = 0.0087317

PIMPLE: iteration 1
forces forces:
    rho: rho
    Not including porosity effects

Restraint moorDynR2: MoorDyn module saved at t = 0.00630415 s
X[6]: (3.30589e-11 0 -0.016006), (0 1.07799e-09 0)
XD[6]: (-1.33984e-08 0 -0.00211916), (0 8.26178e-08 0)
0.0087317: force (2.02395e-08 0 -1.73054), moment (0 3.64952e-10 0)
6-DoF rigid body motion
    Centre of rotation: (2.25283e-10 0 -0.0160104)
    Centre of mass: (2.25283e-10 0 -0.0160104)
    Orientation: (1 0 2.85427e-09 0 1 0 -2.85427e-09 0 1)
    Linear velocity: (1.71768e-07 0 -0.00155449)
    Angular velocity: (0 1.38082e-06 0)
Updating StokesII wave model for patch inlet
Updating shallowWaterAbsorption wave model for patch outlet
GAMGPCG:  Solving for pcorr, Initial residual = 1, Final residual = 5.541e-06, No Iterations 11
GAMGPCG:  Solving for pcorr, Initial residual = 4.59904e-09, Final residual = 4.59904e-09, No Iterations 0
time step continuity errors : sum local = 2.96187e-12, global = 8.462e-14, cumulative = -7.51721e-11
smoothSolver:  Solving for alpha.water, Initial residual = 4.52462e-07, Final residual = 2.2451e-15, No Iterations 1
Phase-1 volume fraction = 0.517059  Min(alpha.water) = -7.20656e-189  Max(alpha.water) = 1.0002
Applying the previous iteration compression flux
MULES: Correcting alpha.water
MULES: Correcting alpha.water
MULES: Correcting alpha.water
Phase-1 volume fraction = 0.517059  Min(alpha.water) = -3.22473e-17  Max(alpha.water) = 1.00011
GAMG:  Solving for p_rgh, Initial residual = 3.76116e-05, Final residual = 2.33197e-07, No Iterations 6
GAMGPCG:  Solving for p_rgh, Initial residual = 1.78866e-07, Final residual = 2.10097e-09, No Iterations 2
time step continuity errors : sum local = 1.32933e-10, global = 4.33596e-12, cumulative = -7.08362e-11
PIMPLE: iteration 2
forces forces:
    rho: rho
    Not including porosity effects

Restraint moorDynR2: MoorDyn module restored to t = 0.00630415 s
X[6]: (2.25283e-10 0 -0.0160104), (0 2.85427e-09 0)
XD[6]: (1.71768e-07 0 -0.00155449), (0 1.38082e-06 0)
0.0087317: force (-6.49925e-07 0 -1.73028), moment (0 -5.60885e-08 0)
6-DoF rigid body motion
    Centre of rotation: (5.84394e-12 0 -0.0160177)
    Centre of mass: (5.84394e-12 0 -0.0160177)
    Orientation: (1 0 1.25438e-09 0 1 0 -1.25438e-09 0 1)
    Linear velocity: (-9.02336e-09 0 -0.00754252)
    Angular velocity: (0 6.27015e-08 0)
GAMGPCG:  Solving for pcorr, Initial residual = 1, Final residual = 4.19687e-06, No Iterations 10
GAMGPCG:  Solving for pcorr, Initial residual = 3.29921e-09, Final residual = 3.29921e-09, No Iterations 0
time step continuity errors : sum local = 4.01134e-11, global = -3.19219e-13, cumulative = -7.11554e-11
smoothSolver:  Solving for alpha.water, Initial residual = 6.38236e-07, Final residual = 2.33148e-14, No Iterations 1
Phase-1 volume fraction = 0.517059  Min(alpha.water) = -2.59764e-192  Max(alpha.water) = 1.0002
Applying the previous iteration compression flux
MULES: Correcting alpha.water
MULES: Correcting alpha.water
MULES: Correcting alpha.water
Phase-1 volume fraction = 0.517059  Min(alpha.water) = -1.61715e-16  Max(alpha.water) = 1.00061
GAMG:  Solving for p_rgh, Initial residual = 3.01477e-05, Final residual = 2.29361e-07, No Iterations 6
GAMGPCG:  Solving for p_rgh, Initial residual = 2.83099e-07, Final residual = 3.60092e-09, No Iterations 2
time step continuity errors : sum local = 1.83917e-10, global = 2.21539e-11, cumulative = -4.90014e-11
PIMPLE: iteration 3
forces forces:
    rho: rho
    Not including porosity effects

Restraint moorDynR2: MoorDyn module restored to t = 0.00630415 s
X[6]: (5.84394e-12 0 -0.0160177), (0 1.25438e-09 0)
XD[6]: (-9.02336e-09 0 -0.00754252), (0 6.27015e-08 0)
0.0087317: force (1.95211e-08 0 -1.70724), moment (0 5.63794e-11 0)
6-DoF rigid body motion
    Centre of rotation: (9.26165e-12 0 -0.0160116)
    Centre of mass: (9.26165e-12 0 -0.0160116)
    Orientation: (1 0 1.33392e-09 0 1 0 -1.33392e-09 0 1)
    Linear velocity: (-6.20758e-09 0 -0.00249619)
    Angular velocity: (0 1.28236e-07 0)
GAMGPCG:  Solving for pcorr, Initial residual = 1, Final residual = 4.25862e-06, No Iterations 10
GAMGPCG:  Solving for pcorr, Initial residual = 2.21919e-09, Final residual = 2.21919e-09, No Iterations 0
time step continuity errors : sum local = 2.275e-11, global = 4.75124e-13, cumulative = -4.85263e-11
smoothSolver:  Solving for alpha.water, Initial residual = 1.10272e-06, Final residual = 1.92993e-14, No Iterations 1
Phase-1 volume fraction = 0.517059  Min(alpha.water) = -5.65005e-189  Max(alpha.water) = 1.0002
Applying the previous iteration compression flux
MULES: Correcting alpha.water
MULES: Correcting alpha.water
MULES: Correcting alpha.water
Phase-1 volume fraction = 0.517059  Min(alpha.water) = -5.28219e-15  Max(alpha.water) = 1.00011
GAMG:  Solving for p_rgh, Initial residual = 3.08106e-05, Final residual = 1.73368e-07, No Iterations 6
GAMGPCG:  Solving for p_rgh, Initial residual = 1.44678e-07, Final residual = 1.80523e-09, No Iterations 2
time step continuity errors : sum local = 1.10611e-10, global = -9.15404e-12, cumulative = -5.76804e-11
ExecutionTime = 13.49 s  ClockTime = 13 s

Courant Number mean: 4.45592e-05 max: 0.00186397
Interface Courant Number mean: 0 max: 0
deltaT = 0.00294774
Time = 0.0116794

PIMPLE: iteration 1
forces forces:
    rho: rho
    Not including porosity effects

Restraint moorDynR2: MoorDyn module saved at t = 0.0087317 s
X[6]: (9.26165e-12 0 -0.0160116), (0 1.33392e-09 0)
XD[6]: (-6.20758e-09 0 -0.00249619), (0 1.28236e-07 0)
0.0116794: force (-4.52238e-09 0 -1.73817), moment (0 -2.12278e-09 0)
6-DoF rigid body motion
    Centre of rotation: (-3.20273e-10 0 -0.0160222)
    Centre of mass: (-3.20273e-10 0 -0.0160222)
    Orientation: (1 0 -4.98665e-10 0 1 0 4.98665e-10 0 1)
    Linear velocity: (-2.17377e-07 0 -0.00473768)
    Angular velocity: (0 -1.37162e-06 0)
Updating StokesII wave model for patch inlet
Updating shallowWaterAbsorption wave model for patch outlet
GAMGPCG:  Solving for pcorr, Initial residual = 1, Final residual = 4.09069e-06, No Iterations 11
GAMGPCG:  Solving for pcorr, Initial residual = 2.84275e-09, Final residual = 2.84275e-09, No Iterations 0
time step continuity errors : sum local = 2.41942e-11, global = 8.916e-14, cumulative = -5.75912e-11
smoothSolver:  Solving for alpha.water, Initial residual = 9.44162e-07, Final residual = 3.25171e-14, No Iterations 1
Phase-1 volume fraction = 0.517059  Min(alpha.water) = -2.45008e-192  Max(alpha.water) = 1.00011
Applying the previous iteration compression flux
MULES: Correcting alpha.water
MULES: Correcting alpha.water
MULES: Correcting alpha.water
Phase-1 volume fraction = 0.517059  Min(alpha.water) = -6.9526e-17  Max(alpha.water) = 1.00044
GAMG:  Solving for p_rgh, Initial residual = 4.84435e-05, Final residual = 3.07979e-07, No Iterations 5
GAMGPCG:  Solving for p_rgh, Initial residual = 4.07136e-07, Final residual = 3.89953e-09, No Iterations 2
time step continuity errors : sum local = 2.64338e-10, global = -1.97953e-11, cumulative = -7.73865e-11
PIMPLE: iteration 2
forces forces:
    rho: rho
    Not including porosity effects

Restraint moorDynR2: MoorDyn module restored to t = 0.0087317 s
X[6]: (-3.20273e-10 0 -0.0160222), (0 -4.98665e-10 0)
XD[6]: (-2.17377e-07 0 -0.00473768), (0 -1.37162e-06 0)
0.0116794: force (7.58776e-07 0 -1.72705), moment (0 6.12063e-08 0)
6-DoF rigid body motion
    Centre of rotation: (4.1371e-12 0 -0.0160114)
    Centre of mass: (4.1371e-12 0 -0.0160114)
    Orientation: (1 0 1.92241e-09 0 1 0 -1.92241e-09 0 1)
    Linear velocity: (2.73064e-09 -0 0.00261788)
    Angular velocity: (0 2.71044e-07 0)
GAMGPCG:  Solving for pcorr, Initial residual = 1, Final residual = 4.28753e-06, No Iterations 10
GAMGPCG:  Solving for pcorr, Initial residual = 2.19529e-09, Final residual = 2.19529e-09, No Iterations 0
time step continuity errors : sum local = 3.98256e-11, global = -2.45499e-13, cumulative = -7.7632e-11
smoothSolver:  Solving for alpha.water, Initial residual = 1.16929e-06, Final residual = 2.17837e-16, No Iterations 1
Phase-1 volume fraction = 0.517059  Min(alpha.water) = -5.28195e-15  Max(alpha.water) = 1.00011
Applying the previous iteration compression flux
MULES: Correcting alpha.water
MULES: Correcting alpha.water
MULES: Correcting alpha.water
Phase-1 volume fraction = 0.517059  Min(alpha.water) = -5.27726e-15  Max(alpha.water) = 1.00018
GAMG:  Solving for p_rgh, Initial residual = 5.55936e-05, Final residual = 4.31972e-07, No Iterations 5
GAMGPCG:  Solving for p_rgh, Initial residual = 3.42256e-07, Final residual = 4.47684e-09, No Iterations 2
time step continuity errors : sum local = 3.83209e-10, global = -1.1923e-11, cumulative = -8.9555e-11
PIMPLE: iteration 3
forces forces:
    rho: rho
    Not including porosity effects

Restraint moorDynR2: MoorDyn module restored to t = 0.0087317 s
X[6]: (4.1371e-12 0 -0.0160114), (0 1.92241e-09 0)
XD[6]: (2.73064e-09 -0 0.00261788), (0 2.71044e-07 0)
0.0116794: force (-5.04208e-08 0 -1.75505), moment (0 -6.9403e-09 0)
6-DoF rigid body motion
    Centre of rotation: (-2.80858e-12 0 -0.0160205)
    Centre of mass: (-2.80858e-12 0 -0.0160205)
    Orientation: (1 0 1.85222e-09 0 1 0 -1.85222e-09 0 1)
    Linear velocity: (-1.98192e-09 0 -0.00358347)
    Angular velocity: (0 2.23421e-07 0)
GAMGPCG:  Solving for pcorr, Initial residual = 1, Final residual = 4.11804e-06, No Iterations 10
GAMGPCG:  Solving for pcorr, Initial residual = 3.81404e-09, Final residual = 3.81404e-09, No Iterations 0
time step continuity errors : sum local = 5.83096e-11, global = -6.43782e-13, cumulative = -9.01988e-11
smoothSolver:  Solving for alpha.water, Initial residual = 1.4436e-06, Final residual = 5.304e-14, No Iterations 1
Phase-1 volume fraction = 0.517059  Min(alpha.water) = -2.51715e-139  Max(alpha.water) = 1.00011
Applying the previous iteration compression flux
MULES: Correcting alpha.water
MULES: Correcting alpha.water
MULES: Correcting alpha.water
Phase-1 volume fraction = 0.517059  Min(alpha.water) = -1.54455e-16  Max(alpha.water) = 1.00046
GAMG:  Solving for p_rgh, Initial residual = 3.47367e-05, Final residual = 3.36855e-07, No Iterations 5
GAMGPCG:  Solving for p_rgh, Initial residual = 4.08006e-07, Final residual = 5.16289e-09, No Iterations 2
time step continuity errors : sum local = 3.65835e-10, global = 1.43026e-11, cumulative = -7.58963e-11
ExecutionTime = 16.47 s  ClockTime = 16 s

Courant Number mean: 7.48992e-05 max: 0.00330407
Interface Courant Number mean: 0 max: 0
deltaT = 0.00348369
Time = 0.0151631

PIMPLE: iteration 1
forces forces:
    rho: rho
    Not including porosity effects

Restraint moorDynR2: MoorDyn module saved at t = 0.0116794 s
X[6]: (-2.80858e-12 0 -0.0160205), (0 1.85222e-09 0)
XD[6]: (-1.98192e-09 0 -0.00358347), (0 2.23421e-07 0)
0.0151631: force (-1.11642e-08 0 -1.72447), moment (0 -3.39354e-09 0)
6-DoF rigid body motion
    Centre of rotation: (4.42356e-10 0 -0.0160327)
    Centre of mass: (4.42356e-10 0 -0.0160327)
    Orientation: (1 0 6.01067e-09 0 1 0 -6.01067e-09 0 1)
    Linear velocity: (2.57553e-07 0 -0.00343101)
    Angular velocity: (0 2.16396e-06 0)
Updating StokesII wave model for patch inlet
Updating shallowWaterAbsorption wave model for patch outlet
GAMGPCG:  Solving for pcorr, Initial residual = 1, Final residual = 5.52134e-06, No Iterations 11
GAMGPCG:  Solving for pcorr, Initial residual = 1.054e-09, Final residual = 1.054e-09, No Iterations 0
time step continuity errors : sum local = 3.1226e-12, global = 1.35194e-13, cumulative = -7.57611e-11
smoothSolver:  Solving for alpha.water, Initial residual = 1.17538e-06, Final residual = 9.54382e-14, No Iterations 1
Phase-1 volume fraction = 0.51706  Min(alpha.water) = -2.83572e-131  Max(alpha.water) = 1.00046
Applying the previous iteration compression flux
MULES: Correcting alpha.water
MULES: Correcting alpha.water
MULES: Correcting alpha.water
Phase-1 volume fraction = 0.51706  Min(alpha.water) = -8.65864e-19  Max(alpha.water) = 1.00046
GAMG:  Solving for p_rgh, Initial residual = 6.67912e-05, Final residual = 6.02344e-07, No Iterations 5
GAMGPCG:  Solving for p_rgh, Initial residual = 4.66514e-07, Final residual = 5.99349e-09, No Iterations 2
time step continuity errors : sum local = 7.52813e-10, global = 2.974e-11, cumulative = -4.60211e-11
PIMPLE: iteration 2
forces forces:
    rho: rho
    Not including porosity effects

Restraint moorDynR2: MoorDyn module restored to t = 0.0116794 s
X[6]: (4.42356e-10 0 -0.0160327), (0 6.01067e-09 0)
XD[6]: (2.57553e-07 0 -0.00343101), (0 2.16396e-06 0)
0.0151631: force (-9.53476e-07 0 -1.7218), moment (0 -8.37914e-08 0)
6-DoF rigid body motion
    Centre of rotation: (-1.93921e-11 0 -0.0160467)
    Centre of mass: (-1.93921e-11 0 -0.0160467)
    Orientation: (1 0 2.4155e-09 0 1 0 -2.4155e-09 0 1)
    Linear velocity: (-7.53878e-09 0 -0.0114666)
    Angular velocity: (0 9.99592e-08 0)
GAMGPCG:  Solving for pcorr, Initial residual = 1, Final residual = 4.02304e-06, No Iterations 10
GAMGPCG:  Solving for pcorr, Initial residual = 8.51441e-09, Final residual = 8.51441e-09, No Iterations 0
time step continuity errors : sum local = 1.99419e-10, global = -3.52823e-13, cumulative = -4.63739e-11
smoothSolver:  Solving for alpha.water, Initial residual = 1.0803e-06, Final residual = 3.59595e-13, No Iterations 1
Phase-1 volume fraction = 0.51706  Min(alpha.water) = -2.83552e-131  Max(alpha.water) = 1.00046
Applying the previous iteration compression flux
MULES: Correcting alpha.water
MULES: Correcting alpha.water
MULES: Correcting alpha.water
Phase-1 volume fraction = 0.51706  Min(alpha.water) = -6.55537e-14  Max(alpha.water) = 1.00133
GAMG:  Solving for p_rgh, Initial residual = 4.39377e-05, Final residual = 3.46302e-07, No Iterations 5
GAMGPCG:  Solving for p_rgh, Initial residual = 4.23649e-07, Final residual = 5.42139e-09, No Iterations 2
time step continuity errors : sum local = 5.56875e-10, global = 2.14726e-11, cumulative = -2.49013e-11
PIMPLE: iteration 3
forces forces:
    rho: rho
    Not including porosity effects

Restraint moorDynR2: MoorDyn module restored to t = 0.0116794 s
X[6]: (-1.93921e-11 0 -0.0160467), (0 2.4155e-09 0)
XD[6]: (-7.53878e-09 0 -0.0114666), (0 9.99592e-08 0)
0.0151631: force (1.72921e-08 0 -1.6917), moment (0 -1.38611e-09 0)
6-DoF rigid body motion
    Centre of rotation: (-1.65678e-11 0 -0.0160349)
    Centre of mass: (-1.65678e-11 0 -0.0160349)
    Orientation: (1 0 2.61975e-09 0 1 0 -2.61975e-09 0 1)
    Linear velocity: (-5.91733e-09 0 -0.0046819)
    Angular velocity: (0 2.17224e-07 0)
GAMGPCG:  Solving for pcorr, Initial residual = 1, Final residual = 4.11708e-06, No Iterations 10
GAMGPCG:  Solving for pcorr, Initial residual = 6.40572e-09, Final residual = 6.40572e-09, No Iterations 0
time step continuity errors : sum local = 1.26794e-10, global = 4.26144e-13, cumulative = -2.44751e-11
smoothSolver:  Solving for alpha.water, Initial residual = 2.27125e-06, Final residual = 3.24823e-13, No Iterations 1
Phase-1 volume fraction = 0.51706  Min(alpha.water) = -2.83568e-131  Max(alpha.water) = 1.00046
Applying the previous iteration compression flux
MULES: Correcting alpha.water
MULES: Correcting alpha.water
MULES: Correcting alpha.water
Phase-1 volume fraction = 0.51706  Min(alpha.water) = -1.77515e-13  Max(alpha.water) = 1.00027
GAMG:  Solving for p_rgh, Initial residual = 4.13e-05, Final residual = 3.18974e-07, No Iterations 5
GAMGPCG:  Solving for p_rgh, Initial residual = 2.68161e-07, Final residual = 3.46441e-09, No Iterations 2
time step continuity errors : sum local = 4.2284e-10, global = -8.81535e-12, cumulative = -3.32905e-11
ExecutionTime = 17.69 s  ClockTime = 17 s

Courant Number mean: 0.000112469 max: 0.00505321
Interface Courant Number mean: 0 max: 0
deltaT = 0.00435461
Time = 0.0195177

PIMPLE: iteration 1
forces forces:
    rho: rho
    Not including porosity effects

Restraint moorDynR2: MoorDyn module saved at t = 0.0151631 s
X[6]: (-1.65678e-11 0 -0.0160349), (0 2.61975e-09 0)
XD[6]: (-5.91733e-09 0 -0.0046819), (0 2.17224e-07 0)
0.0195177: force (-1.14938e-08 0 -1.73076), moment (0 -4.16951e-09 0)
6-DoF rigid body motion
    Centre of rotation: (-7.66813e-10 0 -0.0160605)
    Centre of mass: (-7.66813e-10 0 -0.0160605)
    Orientation: (1 0 -1.74504e-09 0 1 0 1.74504e-09 0 1)
    Linear velocity: (-3.38658e-07 0 -0.00706236)
    Angular velocity: (0 -2.2219e-06 0)
Updating StokesII wave model for patch inlet
Updating shallowWaterAbsorption wave model for patch outlet
GAMGPCG:  Solving for pcorr, Initial residual = 1, Final residual = 4.42756e-06, No Iterations 11
GAMGPCG:  Solving for pcorr, Initial residual = 7.21992e-09, Final residual = 7.21992e-09, No Iterations 0
time step continuity errors : sum local = 1.00247e-10, global = 1.83649e-13, cumulative = -3.31068e-11
smoothSolver:  Solving for alpha.water, Initial residual = 2.23281e-06, Final residual = 7.67779e-13, No Iterations 1
Phase-1 volume fraction = 0.51706  Min(alpha.water) = -2.83528e-131  Max(alpha.water) = 1.00027
Applying the previous iteration compression flux
MULES: Correcting alpha.water
MULES: Correcting alpha.water
MULES: Correcting alpha.water
Phase-1 volume fraction = 0.51706  Min(alpha.water) = -2.57748e-18  Max(alpha.water) = 1.00049
GAMG:  Solving for p_rgh, Initial residual = 8.69218e-05, Final residual = 5.99301e-07, No Iterations 4
GAMGPCG:  Solving for p_rgh, Initial residual = 7.45598e-07, Final residual = 6.33822e-09, No Iterations 2
time step continuity errors : sum local = 9.61203e-10, global = -8.03609e-11, cumulative = -1.13468e-10
PIMPLE: iteration 2
forces forces:
    rho: rho
    Not including porosity effects

Restraint moorDynR2: MoorDyn module restored to t = 0.0151631 s
X[6]: (-7.66813e-10 0 -0.0160605), (0 -1.74504e-09 0)
XD[6]: (-3.38658e-07 0 -0.00706236), (0 -2.2219e-06 0)
0.0195177: force (1.15063e-06 0 -1.71874), moment (0 9.26053e-08 0)
6-DoF rigid body motion
    Centre of rotation: (-8.76405e-12 0 -0.0160415)
    Centre of mass: (-8.76405e-12 0 -0.0160415)
    Orientation: (1 0 3.05568e-09 0 1 0 -3.05568e-09 0 1)
    Linear velocity: (9.50148e-09 0 0.00165295)
    Angular velocity: (0 -1.70084e-08 0)
GAMGPCG:  Solving for pcorr, Initial residual = 1, Final residual = 4.16609e-06, No Iterations 10
GAMGPCG:  Solving for pcorr, Initial residual = 7.59284e-09, Final residual = 7.59284e-09, No Iterations 0
time step continuity errors : sum local = 2.41231e-10, global = 8.26373e-13, cumulative = -1.12641e-10
smoothSolver:  Solving for alpha.water, Initial residual = 2.10053e-06, Final residual = 2.11978e-13, No Iterations 1
Phase-1 volume fraction = 0.51706  Min(alpha.water) = -1.19056e-38  Max(alpha.water) = 1.00027
Applying the previous iteration compression flux
MULES: Correcting alpha.water
MULES: Correcting alpha.water
MULES: Correcting alpha.water
Phase-1 volume fraction = 0.51706  Min(alpha.water) = -1.11699e-12  Max(alpha.water) = 1.00039
GAMG:  Solving for p_rgh, Initial residual = 8.33782e-05, Final residual = 7.64742e-07, No Iterations 4
GAMGPCG:  Solving for p_rgh, Initial residual = 6.36985e-07, Final residual = 8.07632e-09, No Iterations 2
time step continuity errors : sum local = 1.45548e-09, global = -1.70219e-10, cumulative = -2.82861e-10
PIMPLE: iteration 3
forces forces:
    rho: rho
    Not including porosity effects

Restraint moorDynR2: MoorDyn module restored to t = 0.0151631 s
X[6]: (-8.76405e-12 0 -0.0160415), (0 3.05568e-09 0)
XD[6]: (9.50148e-09 0 0.00165295), (0 -1.70084e-08 0)
0.0195177: force (-1.26742e-08 0 -1.7507), moment (0 -3.0653e-09 0)
6-DoF rigid body motion
    Centre of rotation: (-7.40548e-11 0 -0.0160575)
    Centre of mass: (-7.40548e-11 0 -0.0160575)
    Orientation: (1 0 3.24924e-09 0 1 0 -3.24924e-09 0 1)
    Linear velocity: (-2.04855e-08 0 -0.00570984)
    Angular velocity: (0 7.18876e-08 0)
GAMGPCG:  Solving for pcorr, Initial residual = 1, Final residual = 4.10977e-06, No Iterations 10
GAMGPCG:  Solving for pcorr, Initial residual = 1.04688e-08, Final residual = 1.04688e-08, No Iterations 0
time step continuity errors : sum local = 2.80837e-10, global = -5.76735e-13, cumulative = -2.83437e-10
smoothSolver:  Solving for alpha.water, Initial residual = 2.75614e-06, Final residual = 1.05331e-12, No Iterations 1
Phase-1 volume fraction = 0.51706  Min(alpha.water) = -2.83531e-131  Max(alpha.water) = 1.00027
Applying the previous iteration compression flux
MULES: Correcting alpha.water
MULES: Correcting alpha.water
MULES: Correcting alpha.water
Phase-1 volume fraction = 0.51706  Min(alpha.water) = -5.87496e-16  Max(alpha.water) = 1.00093
GAMG:  Solving for p_rgh, Initial residual = 5.03613e-05, Final residual = 2.54944e-07, No Iterations 5
GAMGPCG:  Solving for p_rgh, Initial residual = 2.9816e-07, Final residual = 3.89637e-09, No Iterations 2
time step continuity errors : sum local = 6.05713e-10, global = 2.82727e-11, cumulative = -2.55165e-10
ExecutionTime = 18.92 s  ClockTime = 18 s

Courant Number mean: 0.000173103 max: 0.00815772
Interface Courant Number mean: 6.07329e-08 max: 0.00526918
deltaT = 0.00508038
Time = 0.0245981

PIMPLE: iteration 1
forces forces:
    rho: rho
    Not including porosity effects

Restraint moorDynR2: MoorDyn module saved at t = 0.0195177 s
X[6]: (-7.40548e-11 0 -0.0160575), (0 3.24924e-09 0)
XD[6]: (-2.04855e-08 0 -0.00570984), (0 7.18876e-08 0)
0.0245981: force (4.82178e-08 0 -1.71876), moment (0 5.32073e-10 0)
6-DoF rigid body motion
    Centre of rotation: (7.65297e-10 0 -0.0160884)
    Centre of mass: (7.65297e-10 0 -0.0160884)
    Orientation: (1 0 1.05165e-08 0 1 0 -1.05165e-08 0 1)
    Linear velocity: (3.50914e-07 0 -0.00643679)
    Angular velocity: (0 2.78904e-06 0)
Updating StokesII wave model for patch inlet
Updating shallowWaterAbsorption wave model for patch outlet
GAMGPCG:  Solving for pcorr, Initial residual = 1, Final residual = 6.4775e-06, No Iterations 11
GAMGPCG:  Solving for pcorr, Initial residual = 5.90437e-09, Final residual = 5.90437e-09, No Iterations 0
time step continuity errors : sum local = 5.0847e-11, global = 2.74723e-13, cumulative = -2.5489e-10
smoothSolver:  Solving for alpha.water, Initial residual = 2.81143e-06, Final residual = 1.99013e-12, No Iterations 1
Phase-1 volume fraction = 0.517061  Min(alpha.water) = -1.29572e-118  Max(alpha.water) = 1.00093
Applying the previous iteration compression flux
MULES: Correcting alpha.water
MULES: Correcting alpha.water
MULES: Correcting alpha.water
Phase-1 volume fraction = 0.517061  Min(alpha.water) = -1.44647e-22  Max(alpha.water) = 1.00093
GAMG:  Solving for p_rgh, Initial residual = 0.000116032, Final residual = 8.60837e-07, No Iterations 4
GAMGPCG:  Solving for p_rgh, Initial residual = 7.13867e-07, Final residual = 9.66466e-09, No Iterations 2
time step continuity errors : sum local = 2.42275e-09, global = -6.869e-11, cumulative = -3.2358e-10
PIMPLE: iteration 2
forces forces:
    rho: rho
    Not including porosity effects

Restraint moorDynR2: MoorDyn module restored to t = 0.0195177 s
X[6]: (7.65297e-10 0 -0.0160884), (0 1.05165e-08 0)
XD[6]: (3.50914e-07 0 -0.00643679), (0 2.78904e-06 0)
0.0245981: force (-1.21241e-06 0 -1.71294), moment (0 -1.07015e-07 0)
6-DoF rigid body motion
    Centre of rotation: (-3.0695e-10 0 -0.0161095)
    Centre of mass: (-3.0695e-10 0 -0.0161095)
    Orientation: (1 0 2.34283e-09 0 1 0 -2.34283e-09 0 1)
    Linear velocity: (-7.11986e-08 0 -0.0147522)
    Angular velocity: (-0 -4.28714e-07 0)
GAMGPCG:  Solving for pcorr, Initial residual = 1, Final residual = 4.11346e-06, No Iterations 10
GAMGPCG:  Solving for pcorr, Initial residual = 1.97856e-08, Final residual = 1.97856e-08, No Iterations 0
time step continuity errors : sum local = 6.99987e-10, global = -1.57153e-12, cumulative = -3.25151e-10
smoothSolver:  Solving for alpha.water, Initial residual = 2.00606e-06, Final residual = 3.55258e-12, No Iterations 1
Phase-1 volume fraction = 0.517061  Min(alpha.water) = -1.29558e-118  Max(alpha.water) = 1.00092
Applying the previous iteration compression flux
MULES: Correcting alpha.water
MULES: Correcting alpha.water
MULES: Correcting alpha.water
Phase-1 volume fraction = 0.517061  Min(alpha.water) = -3.89903e-12  Max(alpha.water) = 1.00249
GAMG:  Solving for p_rgh, Initial residual = 5.66409e-05, Final residual = 5.18137e-07, No Iterations 4
GAMGPCG:  Solving for p_rgh, Initial residual = 5.9712e-07, Final residual = 8.17777e-09, No Iterations 2
time step continuity errors : sum local = 1.79096e-09, global = 2.30974e-10, cumulative = -9.41773e-11
PIMPLE: iteration 3
forces forces:
    rho: rho
    Not including porosity effects

Restraint moorDynR2: MoorDyn module restored to t = 0.0195177 s
X[6]: (-3.0695e-10 0 -0.0161095), (0 2.34283e-09 0)
XD[6]: (-7.11986e-08 0 -0.0147522), (-0 -4.28714e-07 0)
0.0245981: force (2.49555e-07 0 -1.683), moment (0 1.74318e-08 0)
6-DoF rigid body motion
    Centre of rotation: (-1.64481e-10 0 -0.0160916)
    Centre of mass: (-1.64481e-10 0 -0.0160916)
    Orientation: (1 0 3.39911e-09 0 1 0 -3.39911e-09 0 1)
    Linear velocity: (-1.51126e-08 0 -0.00770761)
    Angular velocity: (0 -1.28874e-08 0)
GAMGPCG:  Solving for pcorr, Initial residual = 1, Final residual = 4.1032e-06, No Iterations 10
GAMGPCG:  Solving for pcorr, Initial residual = 1.65681e-08, Final residual = 1.65681e-08, No Iterations 0
time step continuity errors : sum local = 4.97238e-10, global = 6.42076e-13, cumulative = -9.35353e-11
smoothSolver:  Solving for alpha.water, Initial residual = 3.72868e-06, Final residual = 3.3053e-12, No Iterations 1
Phase-1 volume fraction = 0.517061  Min(alpha.water) = -1.29569e-118  Max(alpha.water) = 1.00093
Applying the previous iteration compression flux
MULES: Correcting alpha.water
MULES: Correcting alpha.water
MULES: Correcting alpha.water
Phase-1 volume fraction = 0.517061  Min(alpha.water) = -1.91282e-12  Max(alpha.water) = 1.00062
GAMG:  Solving for p_rgh, Initial residual = 4.80744e-05, Final residual = 2.22277e-07, No Iterations 5
GAMGPCG:  Solving for p_rgh, Initial residual = 1.95914e-07, Final residual = 2.62226e-09, No Iterations 2
time step continuity errors : sum local = 6.47932e-10, global = -2.26594e-11, cumulative = -1.16195e-10
ExecutionTime = 20.16 s  ClockTime = 20 s

Courant Number mean: 0.00025586 max: 0.0122179
Interface Courant Number mean: 1.616e-06 max: 0.0122179
deltaT = 0.00635047
Time = 0.0309486

PIMPLE: iteration 1
forces forces:
    rho: rho
    Not including porosity effects

Restraint moorDynR2: MoorDyn module saved at t = 0.0245981 s
X[6]: (-1.64481e-10 0 -0.0160916), (0 3.39911e-09 0)
XD[6]: (-1.51126e-08 0 -0.00770761), (0 -1.28874e-08 0)
0.0309486: force (2.37444e-08 0 -1.71847), moment (0 -6.40311e-10 0)
6-DoF rigid body motion
    Centre of rotation: (-1.69122e-09 0 -0.0161485)
    Centre of mass: (-1.69122e-09 0 -0.0161485)
    Orientation: (1 0 -7.72487e-09 0 1 0 7.72487e-09 0 1)
    Linear velocity: (-4.65714e-07 0 -0.0101925)
    Angular velocity: (0 -3.49047e-06 0)
Updating StokesII wave model for patch inlet
Updating shallowWaterAbsorption wave model for patch outlet
GAMGPCG:  Solving for pcorr, Initial residual = 1, Final residual = 4.14037e-06, No Iterations 11
GAMGPCG:  Solving for pcorr, Initial residual = 1.76155e-08, Final residual = 1.76155e-08, No Iterations 0
time step continuity errors : sum local = 3.82237e-10, global = 1.83426e-13, cumulative = -1.16011e-10
smoothSolver:  Solving for alpha.water, Initial residual = 4.84909e-06, Final residual = 1.09373e-11, No Iterations 1
Phase-1 volume fraction = 0.517063  Min(alpha.water) = -4.15383e-24  Max(alpha.water) = 1.00061
Applying the previous iteration compression flux
MULES: Correcting alpha.water
MULES: Correcting alpha.water
MULES: Correcting alpha.water
Phase-1 volume fraction = 0.517063  Min(alpha.water) = -2.9251e-24  Max(alpha.water) = 1.00072
GAMG:  Solving for p_rgh, Initial residual = 0.000161061, Final residual = 1.29749e-06, No Iterations 3
GAMGPCG:  Solving for p_rgh, Initial residual = 1.48332e-06, Final residual = 1.43039e-09, No Iterations 3
time step continuity errors : sum local = 4.77408e-10, global = 1.8818e-12, cumulative = -1.14129e-10
PIMPLE: iteration 2
forces forces:
    rho: rho
    Not including porosity effects

Restraint moorDynR2: MoorDyn module restored to t = 0.0245981 s
X[6]: (-1.69122e-09 0 -0.0161485), (0 -7.72487e-09 0)
XD[6]: (-4.65714e-07 0 -0.0101925), (0 -3.49047e-06 0)
0.0309486: force (1.55556e-06 0 -1.70676), moment (0 1.3013e-07 0)
6-DoF rigid body motion
    Centre of rotation: (-1.94888e-10 0 -0.0161223)
    Centre of mass: (-1.94888e-10 0 -0.0161223)
    Orientation: (1 0 3.81491e-09 0 1 0 -3.81491e-09 0 1)
    Linear velocity: (5.5362e-09 0 -0.00194038)
    Angular velocity: (0 1.43839e-07 0)
GAMGPCG:  Solving for pcorr, Initial residual = 1, Final residual = 4.09393e-06, No Iterations 10
GAMGPCG:  Solving for pcorr, Initial residual = 2.20536e-08, Final residual = 2.20536e-08, No Iterations 0
time step continuity errors : sum local = 9.68871e-10, global = 9.35374e-13, cumulative = -1.13194e-10
smoothSolver:  Solving for alpha.water, Initial residual = 3.13362e-06, Final residual = 4.32226e-12, No Iterations 1
Phase-1 volume fraction = 0.517063  Min(alpha.water) = -7.23524e-86  Max(alpha.water) = 1.00061
Applying the previous iteration compression flux
MULES: Correcting alpha.water
MULES: Correcting alpha.water
MULES: Correcting alpha.water
Phase-1 volume fraction = 0.517063  Min(alpha.water) = -5.01574e-15  Max(alpha.water) = 1.00072
GAMG:  Solving for p_rgh, Initial residual = 0.000105366, Final residual = 5.11836e-07, No Iterations 4
GAMGPCG:  Solving for p_rgh, Initial residual = 4.54613e-07, Final residual = 6.55503e-09, No Iterations 2
time step continuity errors : sum local = 2.40659e-09, global = -3.21846e-10, cumulative = -4.3504e-10
PIMPLE: iteration 3
forces forces:
    rho: rho
    Not including porosity effects

Restraint moorDynR2: MoorDyn module restored to t = 0.0245981 s
X[6]: (-1.94888e-10 0 -0.0161223), (0 3.81491e-09 0)
XD[6]: (5.5362e-09 0 -0.00194038), (0 1.43839e-07 0)
0.0309486: force (-4.00818e-08 0 -1.73596), moment (0 -6.72896e-09 0)
6-DoF rigid body motion
    Centre of rotation: (-2.42952e-10 0 -0.0161445)
    Centre of mass: (-2.42952e-10 0 -0.0161445)
    Orientation: (1 0 3.51727e-09 0 1 0 -3.51727e-09 0 1)
    Linear velocity: (-9.60098e-09 0 -0.00893289)
    Angular velocity: (0 5.00998e-08 0)
GAMGPCG:  Solving for pcorr, Initial residual = 1, Final residual = 4.09011e-06, No Iterations 10
GAMGPCG:  Solving for pcorr, Initial residual = 2.60482e-08, Final residual = 2.60482e-08, No Iterations 0
time step continuity errors : sum local = 9.68902e-10, global = -7.94885e-13, cumulative = -4.35835e-10
smoothSolver:  Solving for alpha.water, Initial residual = 4.41024e-06, Final residual = 1.13323e-11, No Iterations 1
Phase-1 volume fraction = 0.517063  Min(alpha.water) = -1.05807e-99  Max(alpha.water) = 1.00061
Applying the previous iteration compression flux
MULES: Correcting alpha.water
MULES: Correcting alpha.water
MULES: Correcting alpha.water
Phase-1 volume fraction = 0.517063  Min(alpha.water) = -5.79633e-14  Max(alpha.water) = 1.00137
GAMG:  Solving for p_rgh, Initial residual = 6.25095e-05, Final residual = 3.61834e-07, No Iterations 4
GAMGPCG:  Solving for p_rgh, Initial residual = 4.00171e-07, Final residual = 5.23722e-09, No Iterations 2
time step continuity errors : sum local = 1.75075e-09, global = 1.83328e-10, cumulative = -2.52506e-10
ExecutionTime = 21.42 s  ClockTime = 21 s

Courant Number mean: 0.000376404 max: 0.01901
Interface Courant Number mean: 3.92799e-06 max: 0.01901
deltaT = 0.00635047
Time = 0.0372991

PIMPLE: iteration 1
forces forces:
    rho: rho
    Not including porosity effects

Restraint moorDynR2: MoorDyn module saved at t = 0.0309486 s
X[6]: (-2.42952e-10 0 -0.0161445), (0 3.51727e-09 0)
XD[6]: (-9.60098e-09 0 -0.00893289), (0 5.00998e-08 0)
0.0372991: force (2.4365e-08 0 -1.71063), moment (0 -8.2741e-11 0)
6-DoF rigid body motion
    Centre of rotation: (1.19555e-09 0 -0.016206)
    Centre of mass: (1.19555e-09 0 -0.016206)
    Orientation: (1 0 1.53739e-08 0 1 0 -1.53739e-08 0 1)
    Linear velocity: (4.6264e-07 0 -0.0104458)
    Angular velocity: (0 3.684e-06 0)
Updating StokesII wave model for patch inlet
Updating shallowWaterAbsorption wave model for patch outlet
GAMGPCG:  Solving for pcorr, Initial residual = 1, Final residual = 3.8912e-06, No Iterations 11
GAMGPCG:  Solving for pcorr, Initial residual = 2.31342e-08, Final residual = 2.31342e-08, No Iterations 0
time step continuity errors : sum local = 2.88346e-10, global = 4.53902e-14, cumulative = -2.52461e-10
smoothSolver:  Solving for alpha.water, Initial residual = 5.30067e-06, Final residual = 1.75549e-11, No Iterations 1
Phase-1 volume fraction = 0.517064  Min(alpha.water) = -5.96527e-24  Max(alpha.water) = 1.00136
Applying the previous iteration compression flux
MULES: Correcting alpha.water
MULES: Correcting alpha.water
MULES: Correcting alpha.water
Phase-1 volume fraction = 0.517064  Min(alpha.water) = -4.30325e-23  Max(alpha.water) = 1.00136
GAMG:  Solving for p_rgh, Initial residual = 0.000191873, Final residual = 1.30871e-06, No Iterations 3
GAMGPCG:  Solving for p_rgh, Initial residual = 1.16547e-06, Final residual = 1.05771e-09, No Iterations 3
time step continuity errors : sum local = 3.89244e-10, global = 8.74677e-12, cumulative = -2.43714e-10
PIMPLE: iteration 2
forces forces:
    rho: rho
    Not including porosity effects

Restraint moorDynR2: MoorDyn module restored to t = 0.0309486 s
X[6]: (1.19555e-09 0 -0.016206), (0 1.53739e-08 0)
XD[6]: (4.6264e-07 0 -0.0104458), (0 3.684e-06 0)
0.0372991: force (-1.57006e-06 0 -1.70188), moment (0 -1.37371e-07 0)
6-DoF rigid body motion
    Centre of rotation: (-4.344e-10 0 -0.016226)
    Centre of mass: (-4.344e-10 0 -0.016226)
    Orientation: (1 0 3.17534e-09 0 1 0 -3.17534e-09 0 1)
    Linear velocity: (-5.06931e-08 0 -0.0167472)
    Angular velocity: (0 -1.57784e-07 0)
GAMGPCG:  Solving for pcorr, Initial residual = 1, Final residual = 4.01683e-06, No Iterations 10
GAMGPCG:  Solving for pcorr, Initial residual = 4.06068e-08, Final residual = 4.06068e-08, No Iterations 0
time step continuity errors : sum local = 1.36373e-09, global = 9.53014e-13, cumulative = -2.42761e-10
smoothSolver:  Solving for alpha.water, Initial residual = 1.81624e-06, Final residual = 9.35174e-12, No Iterations 1
Phase-1 volume fraction = 0.517064  Min(alpha.water) = -1.78623e-113  Max(alpha.water) = 1.00135
Applying the previous iteration compression flux
MULES: Correcting alpha.water
MULES: Correcting alpha.water
MULES: Correcting alpha.water
Phase-1 volume fraction = 0.517064  Min(alpha.water) = -2.15162e-23  Max(alpha.water) = 1.00309
GAMG:  Solving for p_rgh, Initial residual = 4.30911e-05, Final residual = 2.96554e-07, No Iterations 4
GAMGPCG:  Solving for p_rgh, Initial residual = 3.24781e-07, Final residual = 4.47761e-09, No Iterations 2
time step continuity errors : sum local = 1.53235e-09, global = 1.72941e-10, cumulative = -6.98205e-11
PIMPLE: iteration 3
forces forces:
    rho: rho
    Not including porosity effects

Restraint moorDynR2: MoorDyn module restored to t = 0.0309486 s
X[6]: (-4.344e-10 0 -0.016226), (0 3.17534e-09 0)
XD[6]: (-5.06931e-08 0 -0.0167472), (0 -1.57784e-07 0)
0.0372991: force (1.53833e-07 0 -1.67963), moment (0 9.21625e-09 0)
6-DoF rigid body motion
    Centre of rotation: (-4.2594e-10 0 -0.016209)
    Centre of mass: (-4.2594e-10 0 -0.016209)
    Orientation: (1 0 3.14662e-09 0 1 0 -3.14662e-09 0 1)
    Linear velocity: (-4.80288e-08 0 -0.011392)
    Angular velocity: (-0 -1.6683e-07 0)
GAMGPCG:  Solving for pcorr, Initial residual = 1, Final residual = 4.01829e-06, No Iterations 10
GAMGPCG:  Solving for pcorr, Initial residual = 3.75457e-08, Final residual = 3.75457e-08, No Iterations 0
time step continuity errors : sum local = 1.07275e-09, global = 5.10028e-13, cumulative = -6.93105e-11
smoothSolver:  Solving for alpha.water, Initial residual = 3.89175e-06, Final residual = 1.27566e-11, No Iterations 1
Phase-1 volume fraction = 0.517064  Min(alpha.water) = -1.78638e-113  Max(alpha.water) = 1.00136
Applying the previous iteration compression flux
MULES: Correcting alpha.water
MULES: Correcting alpha.water
MULES: Correcting alpha.water
Phase-1 volume fraction = 0.517064  Min(alpha.water) = -3.67334e-14  Max(alpha.water) = 1.00136
GAMG:  Solving for p_rgh, Initial residual = 4.02151e-05, Final residual = 2.98069e-07, No Iterations 4
GAMGPCG:  Solving for p_rgh, Initial residual = 2.76386e-07, Final residual = 3.74833e-09, No Iterations 2
time step continuity errors : sum local = 1.37973e-09, global = -1.45117e-10, cumulative = -2.14427e-10
ExecutionTime = 24.36 s  ClockTime = 24 s

Courant Number mean: 0.000448172 max: 0.0222172
Interface Courant Number mean: 6.27776e-06 max: 0.0218904
deltaT = 0.00635047
Time = 0.0436495

PIMPLE: iteration 1
forces forces:
    rho: rho
    Not including porosity effects

Restraint moorDynR2: MoorDyn module saved at t = 0.0372991 s
X[6]: (-4.2594e-10 0 -0.016209), (0 3.14662e-09 0)
XD[6]: (-4.80288e-08 0 -0.011392), (-0 -1.6683e-07 0)
0.0436495: force (1.22061e-07 0 -1.70949), moment (0 8.04821e-09 0)
6-DoF rigid body motion
    Centre of rotation: (-2.4319e-09 0 -0.0162878)
    Centre of mass: (-2.4319e-09 0 -0.0162878)
    Orientation: (1 0 -1.06306e-08 0 1 0 1.06306e-08 0 1)
    Linear velocity: (-5.83724e-07 0 -0.0134378)
    Angular velocity: (0 -4.17212e-06 0)
Updating StokesII wave model for patch inlet
Updating shallowWaterAbsorption wave model for patch outlet
GAMGPCG:  Solving for pcorr, Initial residual = 1, Final residual = 8.18893e-06, No Iterations 10
GAMGPCG:  Solving for pcorr, Initial residual = 4.03592e-08, Final residual = 4.03592e-08, No Iterations 0
time step continuity errors : sum local = 6.47105e-10, global = 8.8456e-13, cumulative = -2.13543e-10
smoothSolver:  Solving for alpha.water, Initial residual = 6.50146e-06, Final residual = 3.47297e-11, No Iterations 1
Phase-1 volume fraction = 0.517066  Min(alpha.water) = -9.94e-91  Max(alpha.water) = 1.00134
Applying the previous iteration compression flux
MULES: Correcting alpha.water
MULES: Correcting alpha.water
MULES: Correcting alpha.water
Phase-1 volume fraction = 0.517066  Min(alpha.water) = -3.87391e-32  Max(alpha.water) = 1.00134
GAMG:  Solving for p_rgh, Initial residual = 0.000197453, Final residual = 9.55222e-07, No Iterations 3
GAMGPCG:  Solving for p_rgh, Initial residual = 1.04769e-06, Final residual = 9.3459e-10, No Iterations 3
time step continuity errors : sum local = 3.13084e-10, global = -1.32245e-11, cumulative = -2.26767e-10
PIMPLE: iteration 2
forces forces:
    rho: rho
    Not including porosity effects

Restraint moorDynR2: MoorDyn module restored to t = 0.0372991 s
X[6]: (-2.4319e-09 0 -0.0162878), (0 -1.06306e-08 0)
XD[6]: (-5.83724e-07 0 -0.0134378), (0 -4.17212e-06 0)
0.0436495: force (1.93694e-06 0 -1.69795), moment (0 1.61188e-07 0)
6-DoF rigid body motion
    Centre of rotation: (-6.52678e-10 0 -0.0162721)
    Centre of mass: (-6.52678e-10 0 -0.0162721)
    Orientation: (1 0 2.59888e-09 0 1 0 -2.59888e-09 0 1)
    Linear velocity: (-2.33795e-08 0 -0.00847697)
    Angular velocity: (0 -5.67515e-09 0)
GAMGPCG:  Solving for pcorr, Initial residual = 1, Final residual = 3.79835e-06, No Iterations 10
GAMGPCG:  Solving for pcorr, Initial residual = 4.87958e-08, Final residual = 4.87958e-08, No Iterations 0
time step continuity errors : sum local = 1.29137e-09, global = 9.77877e-14, cumulative = -2.26669e-10
smoothSolver:  Solving for alpha.water, Initial residual = 2.03942e-06, Final residual = 8.15637e-12, No Iterations 1
Phase-1 volume fraction = 0.517066  Min(alpha.water) = -1.44939e-89  Max(alpha.water) = 1.00134
Applying the previous iteration compression flux
MULES: Correcting alpha.water
MULES: Correcting alpha.water
MULES: Correcting alpha.water
Phase-1 volume fraction = 0.517066  Min(alpha.water) = -1.73144e-14  Max(alpha.water) = 1.00134
GAMG:  Solving for p_rgh, Initial residual = 4.14073e-05, Final residual = 3.05901e-07, No Iterations 4
GAMGPCG:  Solving for p_rgh, Initial residual = 2.84809e-07, Final residual = 4.10323e-09, No Iterations 2
time step continuity errors : sum local = 1.45383e-09, global = -1.86436e-10, cumulative = -4.13105e-10
PIMPLE: iteration 3
forces forces:
    rho: rho
    Not including porosity effects

Restraint moorDynR2: MoorDyn module restored to t = 0.0372991 s
X[6]: (-6.52678e-10 0 -0.0162721), (0 2.59888e-09 0)
XD[6]: (-2.33795e-08 0 -0.00847697), (0 -5.67515e-09 0)
0.0436495: force (5.87858e-08 0 -1.71548), moment (0 1.82249e-09 0)
6-DoF rigid body motion
    Centre of rotation: (-6.56712e-10 0 -0.0162855)
    Centre of mass: (-6.56712e-10 0 -0.0162855)
    Orientation: (1 0 2.69531e-09 0 1 0 -2.69531e-09 0 1)
    Linear velocity: (-2.46498e-08 0 -0.0126866)
    Angular velocity: (0 2.46946e-08 0)
GAMGPCG:  Solving for pcorr, Initial residual = 1, Final residual = 4.09445e-06, No Iterations 10
GAMGPCG:  Solving for pcorr, Initial residual = 5.12274e-08, Final residual = 5.12274e-08, No Iterations 0
time step continuity errors : sum local = 1.14956e-09, global = -5.50659e-13, cumulative = -4.13656e-10
smoothSolver:  Solving for alpha.water, Initial residual = 2.12262e-06, Final residual = 1.05577e-11, No Iterations 1
Phase-1 volume fraction = 0.517066  Min(alpha.water) = -3.93547e-90  Max(alpha.water) = 1.00134
Applying the previous iteration compression flux
MULES: Correcting alpha.water
MULES: Correcting alpha.water
MULES: Correcting alpha.water
Phase-1 volume fraction = 0.517066  Min(alpha.water) = -1.55614e-16  Max(alpha.water) = 1.00134
GAMG:  Solving for p_rgh, Initial residual = 3.27298e-05, Final residual = 2.23909e-07, No Iterations 4
GAMGPCG:  Solving for p_rgh, Initial residual = 2.38657e-07, Final residual = 3.17647e-09, No Iterations 2
time step continuity errors : sum local = 1.0621e-09, global = 1.09783e-10, cumulative = -3.03873e-10
ExecutionTime = 25.59 s  ClockTime = 25 s

Courant Number mean: 0.000498123 max: 0.0251544
Interface Courant Number mean: 8.02695e-06 max: 0.0239124
deltaT = 0.00635047
Time = 0.05

PIMPLE: iteration 1
forces forces:
    rho: rho
    Not including porosity effects

Restraint moorDynR2: MoorDyn module saved at t = 0.0436495 s
X[6]: (-6.56712e-10 0 -0.0162855), (0 2.69531e-09 0)
XD[6]: (-2.46498e-08 0 -0.0126866), (0 2.46946e-08 0)
0.05: force (5.18853e-08 0 -1.70308), moment (0 1.89076e-09 0)
6-DoF rigid body motion
    Centre of rotation: (1.01642e-09 0 -0.0163709)
    Centre of mass: (1.01642e-09 0 -0.0163709)
    Orientation: (1 0 1.65193e-08 0 1 0 -1.65193e-08 0 1)
    Linear velocity: (5.51581e-07 0 -0.0142271)
    Angular velocity: (0 4.329e-06 0)
Updating StokesII wave model for patch inlet
Updating shallowWaterAbsorption wave model for patch outlet
GAMGPCG:  Solving for pcorr, Initial residual = 1, Final residual = 3.92006e-06, No Iterations 11
GAMGPCG:  Solving for pcorr, Initial residual = 4.8539e-08, Final residual = 4.8539e-08, No Iterations 0
time step continuity errors : sum local = 4.98696e-10, global = 1.22326e-13, cumulative = -3.0375e-10
smoothSolver:  Solving for alpha.water, Initial residual = 7.00085e-06, Final residual = 4.71408e-11, No Iterations 1
Phase-1 volume fraction = 0.517067  Min(alpha.water) = -2.17143e-31  Max(alpha.water) = 1.00132
Applying the previous iteration compression flux
MULES: Correcting alpha.water
MULES: Correcting alpha.water
MULES: Correcting alpha.water
Phase-1 volume fraction = 0.517067  Min(alpha.water) = -5.06522e-36  Max(alpha.water) = 1.00132
GAMG:  Solving for p_rgh, Initial residual = 0.000229923, Final residual = 2.02643e-06, No Iterations 2
GAMGPCG:  Solving for p_rgh, Initial residual = 1.94371e-06, Final residual = 3.69445e-09, No Iterations 3
time step continuity errors : sum local = 1.272e-09, global = 7.378e-11, cumulative = -2.2997e-10
PIMPLE: iteration 2
forces forces:
    rho: rho
    Not including porosity effects

Restraint moorDynR2: MoorDyn module restored to t = 0.0436495 s
X[6]: (1.01642e-09 0 -0.0163709), (0 1.65193e-08 0)
XD[6]: (5.51581e-07 0 -0.0142271), (0 4.329e-06 0)
0.05: force (-1.87277e-06 0 -1.69283), moment (0 -1.62775e-07 0)
6-DoF rigid body motion
    Centre of rotation: (-8.24464e-10 0 -0.0163835)
    Centre of mass: (-8.24464e-10 0 -0.0163835)
    Orientation: (1 0 3.09829e-09 0 1 0 -3.09829e-09 0 1)
    Linear velocity: (-2.81817e-08 0 -0.0181953)
    Angular velocity: (0 1.02218e-07 0)
GAMGPCG:  Solving for pcorr, Initial residual = 1, Final residual = 4.13479e-06, No Iterations 10
GAMGPCG:  Solving for pcorr, Initial residual = 6.86376e-08, Final residual = 6.86376e-08, No Iterations 0
time step continuity errors : sum local = 1.45542e-09, global = -1.64663e-14, cumulative = -2.29987e-10
smoothSolver:  Solving for alpha.water, Initial residual = 1.27984e-06, Final residual = 8.57195e-12, No Iterations 1
Phase-1 volume fraction = 0.517067  Min(alpha.water) = -1.34979e-93  Max(alpha.water) = 1.00132
Applying the previous iteration compression flux
MULES: Correcting alpha.water
MULES: Correcting alpha.water
MULES: Correcting alpha.water
Phase-1 volume fraction = 0.517067  Min(alpha.water) = -1.33832e-24  Max(alpha.water) = 1.00211
GAMG:  Solving for p_rgh, Initial residual = 2.73173e-05, Final residual = 2.11578e-07, No Iterations 4
GAMGPCG:  Solving for p_rgh, Initial residual = 2.24615e-07, Final residual = 3.00646e-09, No Iterations 2
time step continuity errors : sum local = 1.02268e-09, global = 9.73513e-11, cumulative = -1.32635e-10
PIMPLE: iteration 3
forces forces:
    rho: rho
    Not including porosity effects

Restraint moorDynR2: MoorDyn module restored to t = 0.0436495 s
X[6]: (-8.24464e-10 0 -0.0163835), (0 3.09829e-09 0)
XD[6]: (-2.81817e-08 0 -0.0181953), (0 1.02218e-07 0)
0.05: force (6.0046e-08 0 -1.67882), moment (0 3.53273e-10 0)
6-DoF rigid body motion
    Centre of rotation: (-8.52263e-10 0 -0.0163728)
    Centre of mass: (-8.52263e-10 0 -0.0163728)
    Orientation: (1 0 2.72993e-09 0 1 0 -2.72993e-09 0 1)
    Linear velocity: (-3.69366e-08 0 -0.0148213)
    Angular velocity: (0 -1.37895e-08 0)
GAMGPCG:  Solving for pcorr, Initial residual = 1, Final residual = 4.07833e-06, No Iterations 10
GAMGPCG:  Solving for pcorr, Initial residual = 6.6711e-08, Final residual = 6.6711e-08, No Iterations 0
time step continuity errors : sum local = 1.20346e-09, global = 4.2385e-13, cumulative = -1.32211e-10
smoothSolver:  Solving for alpha.water, Initial residual = 3.22944e-06, Final residual = 1.92644e-11, No Iterations 1
Phase-1 volume fraction = 0.517067  Min(alpha.water) = -1.39427e-90  Max(alpha.water) = 1.00132
Applying the previous iteration compression flux
MULES: Correcting alpha.water
MULES: Correcting alpha.water
MULES: Correcting alpha.water
Phase-1 volume fraction = 0.517067  Min(alpha.water) = -5.09095e-16  Max(alpha.water) = 1.00132
GAMG:  Solving for p_rgh, Initial residual = 2.45436e-05, Final residual = 1.70512e-07, No Iterations 4
GAMGPCG:  Solving for p_rgh, Initial residual = 1.62735e-07, Final residual = 2.054e-09, No Iterations 2
time step continuity errors : sum local = 7.31908e-10, global = -5.82775e-11, cumulative = -1.90489e-10
ExecutionTime = 27.83 s  ClockTime = 27 s

Courant Number mean: 0.000555818 max: 0.0288419
Interface Courant Number mean: 1.00217e-05 max: 0.0253528
deltaT = 0.00714286
Time = 0.0571429

PIMPLE: iteration 1
forces forces:
    rho: rho
    Not including porosity effects

Restraint moorDynR2: MoorDyn module saved at t = 0.05 s
X[6]: (-8.52263e-10 0 -0.0163728), (0 2.72993e-09 0)
XD[6]: (-3.69366e-08 0 -0.0148213), (0 -1.37895e-08 0)
0.0571429: force (8.80988e-08 0 -1.69978), moment (0 4.30023e-09 0)
6-DoF rigid body motion
    Centre of rotation: (-3.47065e-09 0 -0.0164869)
    Centre of mass: (-3.47065e-09 0 -0.0164869)
    Orientation: (1 0 -1.46869e-08 0 1 0 1.46869e-08 0 1)
    Linear velocity: (-6.96212e-07 0 -0.0171173)
    Angular velocity: (0 -4.86293e-06 0)
Updating StokesII wave model for patch inlet
Updating shallowWaterAbsorption wave model for patch outlet
GAMGPCG:  Solving for pcorr, Initial residual = 1, Final residual = 8.01926e-06, No Iterations 10
GAMGPCG:  Solving for pcorr, Initial residual = 7.13994e-08, Final residual = 7.13994e-08, No Iterations 0
time step continuity errors : sum local = 1.38024e-09, global = 1.67936e-12, cumulative = -1.8881e-10
smoothSolver:  Solving for alpha.water, Initial residual = 9.09346e-06, Final residual = 1.07222e-10, No Iterations 1
Phase-1 volume fraction = 0.517069  Min(alpha.water) = -2.43581e-31  Max(alpha.water) = 1.0013
Applying the previous iteration compression flux
MULES: Correcting alpha.water
MULES: Correcting alpha.water
MULES: Correcting alpha.water
Phase-1 volume fraction = 0.517069  Min(alpha.water) = -1.18169e-26  Max(alpha.water) = 1.0013
GAMG:  Solving for p_rgh, Initial residual = 0.000263953, Final residual = 1.63341e-06, No Iterations 2
GAMGPCG:  Solving for p_rgh, Initial residual = 1.704e-06, Final residual = 2.94725e-09, No Iterations 3
time step continuity errors : sum local = 1.26774e-09, global = -1.01695e-10, cumulative = -2.90505e-10
PIMPLE: iteration 2
forces forces:
    rho: rho
    Not including porosity effects

Restraint moorDynR2: MoorDyn module restored to t = 0.05 s
X[6]: (-3.47065e-09 0 -0.0164869), (0 -1.46869e-08 0)
XD[6]: (-6.96212e-07 0 -0.0171173), (0 -4.86293e-06 0)
0.0571429: force (2.28183e-06 0 -1.68727), moment (0 1.8836e-07 0)
6-DoF rigid body motion
    Centre of rotation: (-1.15113e-09 0 -0.0164727)
    Centre of mass: (-1.15113e-09 0 -0.0164727)
    Orientation: (1 0 2.31088e-09 0 1 0 -2.31088e-09 0 1)
    Linear velocity: (-4.67473e-08 0 -0.0131367)
    Angular velocity: (0 -1.03545e-07 0)
GAMGPCG:  Solving for pcorr, Initial residual = 1, Final residual = 3.95758e-06, No Iterations 10
GAMGPCG:  Solving for pcorr, Initial residual = 8.44207e-08, Final residual = 8.44207e-08, No Iterations 0
time step continuity errors : sum local = 2.02277e-09, global = 1.78575e-13, cumulative = -2.90326e-10
smoothSolver:  Solving for alpha.water, Initial residual = 2.6758e-06, Final residual = 2.28699e-11, No Iterations 1
Phase-1 volume fraction = 0.517069  Min(alpha.water) = -5.57933e-86  Max(alpha.water) = 1.0013
Applying the previous iteration compression flux
MULES: Correcting alpha.water
MULES: Correcting alpha.water
MULES: Correcting alpha.water
Phase-1 volume fraction = 0.517069  Min(alpha.water) = -1.05311e-12  Max(alpha.water) = 1.0013
GAMG:  Solving for p_rgh, Initial residual = 3.16777e-05, Final residual = 2.07196e-07, No Iterations 4
GAMGPCG:  Solving for p_rgh, Initial residual = 1.97672e-07, Final residual = 2.66294e-09, No Iterations 2
time step continuity errors : sum local = 1.16042e-09, global = -1.33084e-10, cumulative = -4.2341e-10
PIMPLE: iteration 3
forces forces:
    rho: rho
    Not including porosity effects

Restraint moorDynR2: MoorDyn module restored to t = 0.05 s
X[6]: (-1.15113e-09 0 -0.0164727), (0 2.31088e-09 0)
XD[6]: (-4.67473e-08 0 -0.0131367), (0 -1.03545e-07 0)
0.0571429: force (1.35549e-07 0 -1.70123), moment (0 6.82463e-09 0)
6-DoF rigid body motion
    Centre of rotation: (-1.12656e-09 0 -0.0164848)
    Centre of mass: (-1.12656e-09 0 -0.0164848)
    Orientation: (1 0 2.36448e-09 0 1 0 -2.36448e-09 0 1)
    Linear velocity: (-3.98657e-08 0 -0.0165276)
    Angular velocity: (0 -8.85388e-08 0)
GAMGPCG:  Solving for pcorr, Initial residual = 1, Final residual = 4.05534e-06, No Iterations 10
GAMGPCG:  Solving for pcorr, Initial residual = 8.66303e-08, Final residual = 8.66303e-08, No Iterations 0
time step continuity errors : sum local = 1.76696e-09, global = -4.65366e-13, cumulative = -4.23875e-10
smoothSolver:  Solving for alpha.water, Initial residual = 1.34375e-06, Final residual = 1.1469e-11, No Iterations 1
Phase-1 volume fraction = 0.517069  Min(alpha.water) = -5.57904e-86  Max(alpha.water) = 1.0013
Applying the previous iteration compression flux
MULES: Correcting alpha.water
MULES: Correcting alpha.water
MULES: Correcting alpha.water
Phase-1 volume fraction = 0.517069  Min(alpha.water) = -8.63333e-16  Max(alpha.water) = 1.0013
GAMG:  Solving for p_rgh, Initial residual = 2.51018e-05, Final residual = 1.74368e-07, No Iterations 4
GAMGPCG:  Solving for p_rgh, Initial residual = 1.8346e-07, Final residual = 2.56042e-09, No Iterations 2
time step continuity errors : sum local = 1.06905e-09, global = 1.32759e-10, cumulative = -2.91117e-10
ExecutionTime = 29.09 s  ClockTime = 28 s

Courant Number mean: 0.000693268 max: 0.0366291
Interface Courant Number mean: 1.39092e-05 max: 0.0298994
deltaT = 0.00857143
Time = 0.0657143

PIMPLE: iteration 1
forces forces:
    rho: rho
    Not including porosity effects

Restraint moorDynR2: MoorDyn module saved at t = 0.0571429 s
X[6]: (-1.12656e-09 0 -0.0164848), (0 2.36448e-09 0)
XD[6]: (-3.98657e-08 0 -0.0165276), (0 -8.85388e-08 0)
0.0657143: force (1.024e-07 0 -1.69475), moment (0 5.71483e-09 0)
6-DoF rigid body motion
    Centre of rotation: (1.92146e-09 0 -0.016634)
    Centre of mass: (1.92146e-09 0 -0.016634)
[...]
time step continuity errors : sum local = 2.95734e-09, global = -7.8731e-13, cumulative = -7.06704e-10
smoothSolver:  Solving for alpha.water, Initial residual = 2.45877e-05, Final residual = 9.38e-09, No Iterations 1
Phase-1 volume fraction = 0.517096  Min(alpha.water) = -1.79913e-18  Max(alpha.water) = 1.00141
Applying the previous iteration compression flux
MULES: Correcting alpha.water
MULES: Correcting alpha.water
MULES: Correcting alpha.water
Phase-1 volume fraction = 0.517096  Min(alpha.water) = -1.24345e-05  Max(alpha.water) = 1.00141
GAMG:  Solving for p_rgh, Initial residual = 0.000305498, Final residual = 1.26379e-06, No Iterations 2
GAMGPCG:  Solving for p_rgh, Initial residual = 1.55088e-06, Final residual = 3.96529e-09, No Iterations 3
time step continuity errors : sum local = 3.07717e-09, global = 1.33785e-10, cumulative = -5.72919e-10
PIMPLE: iteration 2
forces forces:
    rho: rho
    Not including porosity effects

Restraint moorDynR2: MoorDyn module restored to t = 0.16 s
X[6]: (-6.92379e-09 0 -0.0197219), (0 4.22179e-08 0)
XD[6]: (4.98221e-07 0 -0.0365413), (0 4.00803e-06 0)
0.17: force (-1.52926e-06 0 -1.64737), moment (0 -1.51244e-07 0)
6-DoF rigid body motion
    Centre of rotation: (-1.22019e-08 0 -0.0197346)
    Centre of mass: (-1.22019e-08 0 -0.0197346)
    Orientation: (1 0 2.27504e-08 0 1 0 -2.27504e-08 0 1)
    Linear velocity: (-5.57403e-07 0 -0.0390759)
    Angular velocity: (0 1.1451e-07 0)
GAMGPCG:  Solving for pcorr, Initial residual = 1, Final residual = 4.7778e-06, No Iterations 10
GAMGPCG:  Solving for pcorr, Initial residual = 6.57522e-07, Final residual = 6.57522e-07, No Iterations 0
time step continuity errors : sum local = 1.45093e-08, global = 9.09621e-13, cumulative = -5.72009e-10
smoothSolver:  Solving for alpha.water, Initial residual = 1.40095e-05, Final residual = 8.02049e-09, No Iterations 1
Phase-1 volume fraction = 0.517096  Min(alpha.water) = -3.05783e-17  Max(alpha.water) = 1.00141
Applying the previous iteration compression flux
MULES: Correcting alpha.water
MULES: Correcting alpha.water
MULES: Correcting alpha.water
Phase-1 volume fraction = 0.517096  Min(alpha.water) = -2.92278e-05  Max(alpha.water) = 1.00141
GAMG:  Solving for p_rgh, Initial residual = 2.06947e-05, Final residual = 9.89681e-08, No Iterations 4
GAMGPCG:  Solving for p_rgh, Initial residual = 1.93204e-07, Final residual = 5.03619e-09, No Iterations 2
time step continuity errors : sum local = 3.90772e-09, global = 1.22722e-10, cumulative = -4.49287e-10
PIMPLE: iteration 3
forces forces:
    rho: rho
    Not including porosity effects

Restraint moorDynR2: MoorDyn module restored to t = 0.16 s
X[6]: (-1.22019e-08 0 -0.0197346), (0 2.27504e-08 0)
XD[6]: (-5.57403e-07 0 -0.0390759), (0 1.1451e-07 0)
0.17: force (1.49146e-06 0 -1.63856), moment (0 5.1899e-08 0)
6-DoF rigid body motion
    Centre of rotation: (-1.16894e-08 0 -0.0197236)
    Centre of mass: (-1.16894e-08 0 -0.0197236)
    Orientation: (1 0 2.16513e-08 0 1 0 -2.16513e-08 0 1)
    Linear velocity: (-4.54906e-07 0 -0.0368658)
    Angular velocity: (0 -1.05308e-07 0)
GAMGPCG:  Solving for pcorr, Initial residual = 1, Final residual = 3.5607e-06, No Iterations 10
GAMGPCG:  Solving for pcorr, Initial residual = 6.56454e-07, Final residual = 6.56454e-07, No Iterations 0
time step continuity errors : sum local = 1.2633e-08, global = 3.21668e-15, cumulative = -4.49284e-10
smoothSolver:  Solving for alpha.water, Initial residual = 1.56111e-05, Final residual = 7.47119e-09, No Iterations 1
Phase-1 volume fraction = 0.517096  Min(alpha.water) = -3.04444e-17  Max(alpha.water) = 1.00141
Applying the previous iteration compression flux
MULES: Correcting alpha.water
MULES: Correcting alpha.water
MULES: Correcting alpha.water
Phase-1 volume fraction = 0.517096  Min(alpha.water) = -2.27992e-05  Max(alpha.water) = 1.00141
GAMG:  Solving for p_rgh, Initial residual = 1.25484e-05, Final residual = 8.92016e-08, No Iterations 4
GAMGPCG:  Solving for p_rgh, Initial residual = 1.23074e-07, Final residual = 2.2166e-09, No Iterations 2
time step continuity errors : sum local = 1.7576e-09, global = -1.324e-10, cumulative = -5.81684e-10
ExecutionTime = 48.24 s  ClockTime = 47 s

Courant Number mean: 0.00208462 max: 0.410617
Interface Courant Number mean: 7.02321e-05 max: 0.0823117
deltaT = 0.01
Time = 0.18

PIMPLE: iteration 1
forces forces:
    rho: rho
    Not including porosity effects

Restraint moorDynR2: MoorDyn module saved at t = 0.17 s
X[6]: (-1.16894e-08 0 -0.0197236), (0 2.16513e-08 0)
XD[6]: (-4.54906e-07 0 -0.0368658), (0 -1.05308e-07 0)
0.18: force (1.09536e-06 0 -1.64994), moment (0 5.91942e-08 0)
6-DoF rigid body motion
    Centre of rotation: (-2.17699e-08 0 -0.0200963)
    Centre of mass: (-2.17699e-08 0 -0.0200963)
    Orientation: (1 0 -4.42446e-10 0 1 0 4.42446e-10 0 1)
    Linear velocity: (-1.56118e-06 0 -0.0376866)
    Angular velocity: (0 -4.31343e-06 0)
Updating StokesII wave model for patch inlet
Updating shallowWaterAbsorption wave model for patch outlet
GAMGPCG:  Solving for pcorr, Initial residual = 1, Final residual = 5.782e-06, No Iterations 11
GAMGPCG:  Solving for pcorr, Initial residual = 6.34047e-07, Final residual = 6.34047e-07, No Iterations 0
time step continuity errors : sum local = 6.77358e-09, global = -9.04348e-13, cumulative = -5.82588e-10
smoothSolver:  Solving for alpha.water, Initial residual = 2.5008e-05, Final residual = 9.5838e-09, No Iterations 1
Phase-1 volume fraction = 0.517096  Min(alpha.water) = -7.64689e-16  Max(alpha.water) = 1.00135
Applying the previous iteration compression flux
MULES: Correcting alpha.water
MULES: Correcting alpha.water
MULES: Correcting alpha.water
Phase-1 volume fraction = 0.517096  Min(alpha.water) = -3.02035e-05  Max(alpha.water) = 1.00135
GAMG:  Solving for p_rgh, Initial residual = 0.000301479, Final residual = 1.20883e-06, No Iterations 2
GAMGPCG:  Solving for p_rgh, Initial residual = 1.66926e-06, Final residual = 3.84072e-09, No Iterations 3
time step continuity errors : sum local = 2.9705e-09, global = -7.17695e-11, cumulative = -6.54357e-10
PIMPLE: iteration 2
forces forces:
    rho: rho
    Not including porosity effects

Restraint moorDynR2: MoorDyn module restored to t = 0.17 s
X[6]: (-2.17699e-08 0 -0.0200963), (0 -4.42446e-10 0)
XD[6]: (-1.56118e-06 0 -0.0376866), (0 -4.31343e-06 0)
0.18: force (4.41717e-06 0 -1.64176), moment (0 2.61125e-07 0)
6-DoF rigid body motion
    Centre of rotation: (-1.76072e-08 0 -0.020083)
    Centre of mass: (-1.76072e-08 0 -0.020083)
    Orientation: (1 0 1.89783e-08 0 1 0 -1.89783e-08 0 1)
    Linear velocity: (-7.2865e-07 0 -0.0350186)
    Angular velocity: (0 -4.29276e-07 0)
GAMGPCG:  Solving for pcorr, Initial residual = 1, Final residual = 4.25648e-06, No Iterations 10
GAMGPCG:  Solving for pcorr, Initial residual = 7.2793e-07, Final residual = 7.2793e-07, No Iterations 0
time step continuity errors : sum local = 1.69512e-08, global = -4.58841e-13, cumulative = -6.54816e-10
smoothSolver:  Solving for alpha.water, Initial residual = 1.54427e-05, Final residual = 6.60262e-09, No Iterations 1
Phase-1 volume fraction = 0.517096  Min(alpha.water) = -8.70129e-16  Max(alpha.water) = 1.00135
Applying the previous iteration compression flux
MULES: Correcting alpha.water
MULES: Correcting alpha.water
MULES: Correcting alpha.water
Phase-1 volume fraction = 0.517096  Min(alpha.water) = -8.35018e-05  Max(alpha.water) = 1.00135
GAMG:  Solving for p_rgh, Initial residual = 1.9712e-05, Final residual = 9.61449e-08, No Iterations 4
GAMGPCG:  Solving for p_rgh, Initial residual = 2.05609e-07, Final residual = 3.39541e-09, No Iterations 2
time step continuity errors : sum local = 2.63324e-09, global = 5.56663e-11, cumulative = -5.9915e-10
PIMPLE: iteration 3
forces forces:
    rho: rho
    Not including porosity effects

Restraint moorDynR2: MoorDyn module restored to t = 0.17 s
X[6]: (-1.76072e-08 0 -0.020083), (0 1.89783e-08 0)
XD[6]: (-7.2865e-07 0 -0.0350186), (0 -4.29276e-07 0)
0.18: force (1.95168e-06 0 -1.65105), moment (0 8.18346e-08 0)
6-DoF rigid body motion
    Centre of rotation: (-1.73599e-08 0 -0.0200946)
    Centre of mass: (-1.73599e-08 0 -0.0200946)
    Orientation: (1 0 1.9838e-08 0 1 0 -1.9838e-08 0 1)
    Linear velocity: (-6.79185e-07 0 -0.037351)
    Angular velocity: (-0 -2.57354e-07 0)
GAMGPCG:  Solving for pcorr, Initial residual = 1, Final residual = 3.88148e-06, No Iterations 10
GAMGPCG:  Solving for pcorr, Initial residual = 7.30453e-07, Final residual = 7.30453e-07, No Iterations 0
time step continuity errors : sum local = 1.48598e-08, global = -8.56089e-13, cumulative = -6.00006e-10
smoothSolver:  Solving for alpha.water, Initial residual = 1.48163e-05, Final residual = 6.72893e-09, No Iterations 1
Phase-1 volume fraction = 0.517096  Min(alpha.water) = -8.70143e-16  Max(alpha.water) = 1.00135
Applying the previous iteration compression flux
MULES: Correcting alpha.water
MULES: Correcting alpha.water
MULES: Correcting alpha.water
Phase-1 volume fraction = 0.517096  Min(alpha.water) = -4.45781e-05  Max(alpha.water) = 1.00135
GAMG:  Solving for p_rgh, Initial residual = 1.60553e-05, Final residual = 9.5531e-08, No Iterations 4
GAMGPCG:  Solving for p_rgh, Initial residual = 1.79126e-07, Final residual = 4.55708e-09, No Iterations 2
time step continuity errors : sum local = 3.45183e-09, global = 1.4467e-10, cumulative = -4.55336e-10
ExecutionTime = 51.21 s  ClockTime = 50 s

Courant Number mean: 0.00217995 max: 0.506788
Interface Courant Number mean: 7.43521e-05 max: 0.0866896
deltaT = 0.01
Time = 0.19

PIMPLE: iteration 1
forces forces:
    rho: rho
    Not including porosity effects

Restraint moorDynR2: MoorDyn module saved at t = 0.18 s
X[6]: (-1.73599e-08 0 -0.0200946), (0 1.9838e-08 0)
XD[6]: (-6.79185e-07 0 -0.037351), (-0 -2.57354e-07 0)
0.19: force (1.55827e-06 0 -1.64803), moment (0 8.54682e-08 0)
6-DoF rigid body motion
    Centre of rotation: (-2.06813e-08 0 -0.0204684)
    Centre of mass: (-2.06813e-08 0 -0.0204684)
    Orientation: (1 0 3.66556e-08 0 1 0 -3.66556e-08 0 1)
    Linear velocity: (1.48933e-08 0 -0.0374033)
    Angular velocity: (0 3.62088e-06 0)
Updating StokesII wave model for patch inlet
Updating shallowWaterAbsorption wave model for patch outlet
GAMGPCG:  Solving for pcorr, Initial residual = 1, Final residual = 4.00881e-06, No Iterations 11
GAMGPCG:  Solving for pcorr, Initial residual = 1.40862e-07, Final residual = 1.40862e-07, No Iterations 0
time step continuity errors : sum local = 2.78865e-09, global = -8.27252e-13, cumulative = -4.56163e-10
smoothSolver:  Solving for alpha.water, Initial residual = 2.49417e-05, Final residual = 8.80263e-09, No Iterations 1
Phase-1 volume fraction = 0.517096  Min(alpha.water) = -2.70265e-13  Max(alpha.water) = 1.00129
Applying the previous iteration compression flux
MULES: Correcting alpha.water
MULES: Correcting alpha.water
MULES: Correcting alpha.water
Phase-1 volume fraction = 0.517096  Min(alpha.water) = -4.52261e-05  Max(alpha.water) = 1.00129
GAMG:  Solving for p_rgh, Initial residual = 0.000326988, Final residual = 1.19061e-06, No Iterations 2
GAMGPCG:  Solving for p_rgh, Initial residual = 1.67011e-06, Final residual = 3.84757e-09, No Iterations 3
time step continuity errors : sum local = 2.954e-09, global = 1.42883e-10, cumulative = -3.1328e-10
PIMPLE: iteration 2
forces forces:
    rho: rho
    Not including porosity effects

Restraint moorDynR2: MoorDyn module restored to t = 0.18 s
X[6]: (-2.06813e-08 0 -0.0204684), (0 3.66556e-08 0)
XD[6]: (1.48933e-08 0 -0.0374033), (0 3.62088e-06 0)
0.19: force (-3.44918e-07 0 -1.64242), moment (0 -9.91858e-08 0)
6-DoF rigid body motion
    Centre of rotation: (-2.63125e-08 0 -0.0204798)
    Centre of mass: (-2.63125e-08 0 -0.0204798)
    Orientation: (1 0 1.84069e-08 0 1 0 -1.84069e-08 0 1)
    Linear velocity: (-1.11134e-06 0 -0.0396896)
    Angular velocity: (-0 -2.88639e-08 0)
GAMGPCG:  Solving for pcorr, Initial residual = 1, Final residual = 4.29757e-06, No Iterations 10
GAMGPCG:  Solving for pcorr, Initial residual = 8.05296e-07, Final residual = 8.05296e-07, No Iterations 0
time step continuity errors : sum local = 1.61059e-08, global = 4.28583e-13, cumulative = -3.12851e-10
smoothSolver:  Solving for alpha.water, Initial residual = 1.56894e-05, Final residual = 8.09391e-09, No Iterations 1
Phase-1 volume fraction = 0.517096  Min(alpha.water) = -2.03374e-08  Max(alpha.water) = 1.00129
Applying the previous iteration compression flux
MULES: Correcting alpha.water
MULES: Correcting alpha.water
MULES: Correcting alpha.water
Phase-1 volume fraction = 0.517096  Min(alpha.water) = -7.15521e-05  Max(alpha.water) = 1.00129
GAMG:  Solving for p_rgh, Initial residual = 2.30717e-05, Final residual = 1.92686e-07, No Iterations 3
GAMGPCG:  Solving for p_rgh, Initial residual = 3.91642e-07, Final residual = 1.21106e-09, No Iterations 3
time step continuity errors : sum local = 9.32619e-10, global = 1.42943e-11, cumulative = -2.98557e-10
PIMPLE: iteration 3
forces forces:
    rho: rho
    Not including porosity effects

Restraint moorDynR2: MoorDyn module restored to t = 0.18 s
X[6]: (-2.63125e-08 0 -0.0204798), (0 1.84069e-08 0)
XD[6]: (-1.11134e-06 0 -0.0396896), (-0 -2.88639e-08 0)
0.19: force (2.81517e-06 0 -1.63446), moment (0 1.06393e-07 0)
6-DoF rigid body motion
    Centre of rotation: (-2.58445e-08 0 -0.0204698)
    Centre of mass: (-2.58445e-08 0 -0.0204698)
    Orientation: (1 0 1.56533e-08 0 1 0 -1.56533e-08 0 1)
    Linear velocity: (-1.01773e-06 0 -0.0376892)
    Angular velocity: (-0 -5.79568e-07 0)
GAMGPCG:  Solving for pcorr, Initial residual = 1, Final residual = 3.63253e-06, No Iterations 10
GAMGPCG:  Solving for pcorr, Initial residual = 8.03895e-07, Final residual = 8.03895e-07, No Iterations 0
time step continuity errors : sum local = 1.40713e-08, global = -2.15356e-13, cumulative = -2.98773e-10
smoothSolver:  Solving for alpha.water, Initial residual = 1.69166e-05, Final residual = 7.41613e-09, No Iterations 1
Phase-1 volume fraction = 0.517096  Min(alpha.water) = -3.03874e-08  Max(alpha.water) = 1.0013
Applying the previous iteration compression flux
MULES: Correcting alpha.water
MULES: Correcting alpha.water
MULES: Correcting alpha.water
Phase-1 volume fraction = 0.517096  Min(alpha.water) = -5.6959e-05  Max(alpha.water) = 1.0013
GAMG:  Solving for p_rgh, Initial residual = 1.6022e-05, Final residual = 6.51158e-08, No Iterations 4
GAMGPCG:  Solving for p_rgh, Initial residual = 1.63728e-07, Final residual = 2.34513e-09, No Iterations 2
time step continuity errors : sum local = 1.83657e-09, global = 4.53717e-11, cumulative = -2.53401e-10
ExecutionTime = 52.47 s  ClockTime = 51 s

Courant Number mean: 0.00228963 max: 0.600197
Interface Courant Number mean: 7.82091e-05 max: 0.0909967
deltaT = 0.01
Time = 0.2

PIMPLE: iteration 1
forces forces:
    rho: rho
    Not including porosity effects

Restraint moorDynR2: MoorDyn module saved at t = 0.19 s
X[6]: (-2.58445e-08 0 -0.0204698), (0 1.56533e-08 0)
XD[6]: (-1.01773e-06 0 -0.0376892), (-0 -5.79568e-07 0)
0.2: force (2.24838e-06 0 -1.65327), moment (0 1.25365e-07 0)
6-DoF rigid body motion
    Centre of rotation: (-4.22027e-08 0 -0.0208485)
    Centre of mass: (-4.22027e-08 0 -0.0208485)
    Orientation: (1 0 -1.13813e-08 0 1 0 1.13813e-08 0 1)
    Linear velocity: (-2.25391e-06 0 -0.0380464)
    Angular velocity: (0 -4.82737e-06 -0)
Updating StokesII wave model for patch inlet
Updating shallowWaterAbsorption wave model for patch outlet
GAMGPCG:  Solving for pcorr, Initial residual = 1, Final residual = 4.27087e-06, No Iterations 11
GAMGPCG:  Solving for pcorr, Initial residual = 3.61534e-07, Final residual = 3.61534e-07, No Iterations 0
time step continuity errors : sum local = 5.79771e-09, global = -1.02675e-12, cumulative = -2.54428e-10
smoothSolver:  Solving for alpha.water, Initial residual = 2.52337e-05, Final residual = 9.41584e-09, No Iterations 1
Phase-1 volume fraction = 0.517096  Min(alpha.water) = -2.65022e-08  Max(alpha.water) = 1.00124
Applying the previous iteration compression flux
MULES: Correcting alpha.water
MULES: Correcting alpha.water
MULES: Correcting alpha.water
Phase-1 volume fraction = 0.517096  Min(alpha.water) = -5.67225e-05  Max(alpha.water) = 1.00124
GAMG:  Solving for p_rgh, Initial residual = 0.00032862, Final residual = 1.07698e-06, No Iterations 2
GAMGPCG:  Solving for p_rgh, Initial residual = 1.69531e-06, Final residual = 4.78419e-09, No Iterations 3
time step continuity errors : sum local = 3.66671e-09, global = -1.59993e-10, cumulative = -4.1442e-10
PIMPLE: iteration 2
forces forces:
    rho: rho
    Not including porosity effects

Restraint moorDynR2: MoorDyn module restored to t = 0.19 s
X[6]: (-4.22027e-08 0 -0.0208485), (0 -1.13813e-08 0)
XD[6]: (-2.25391e-06 0 -0.0380464), (0 -4.82737e-06 -0)
0.2: force (6.05733e-06 0 -1.64663), moment (0 3.27544e-07 0)
6-DoF rigid body motion
    Centre of rotation: (-3.80885e-08 0 -0.0208363)
    Centre of mass: (-3.80885e-08 0 -0.0208363)
    Orientation: (1 0 5.69061e-09 0 1 0 -5.69061e-09 0 1)
    Linear velocity: (-1.43108e-06 0 -0.035605)
    Angular velocity: (-0 -1.41298e-06 0)
GAMGPCG:  Solving for pcorr, Initial residual = 1, Final residual = 3.89409e-06, No Iterations 10
GAMGPCG:  Solving for pcorr, Initial residual = 8.75204e-07, Final residual = 8.75204e-07, No Iterations 0
time step continuity errors : sum local = 1.87361e-08, global = 8.94157e-13, cumulative = -4.13526e-10
smoothSolver:  Solving for alpha.water, Initial residual = 1.64222e-05, Final residual = 7.61217e-09, No Iterations 1
Phase-1 volume fraction = 0.517096  Min(alpha.water) = -2.92457e-08  Max(alpha.water) = 1.00124
Applying the previous iteration compression flux
MULES: Correcting alpha.water
MULES: Correcting alpha.water
MULES: Correcting alpha.water
Phase-1 volume fraction = 0.517096  Min(alpha.water) = -9.57102e-05  Max(alpha.water) = 1.00124
GAMG:  Solving for p_rgh, Initial residual = 2.50823e-05, Final residual = 2.37086e-07, No Iterations 3
GAMGPCG:  Solving for p_rgh, Initial residual = 3.92881e-07, Final residual = 8.96847e-09, No Iterations 2
time step continuity errors : sum local = 6.87622e-09, global = -1.93737e-10, cumulative = -6.07264e-10
PIMPLE: iteration 3
forces forces:
    rho: rho
    Not including porosity effects

Restraint moorDynR2: MoorDyn module restored to t = 0.19 s
X[6]: (-3.80885e-08 0 -0.0208363), (0 5.69061e-09 0)
XD[6]: (-1.43108e-06 0 -0.035605), (-0 -1.41298e-06 0)
0.2: force (3.67101e-06 0 -1.65515), moment (0 1.59715e-07 0)
6-DoF rigid body motion
    Centre of rotation: (-3.81187e-08 0 -0.020847)
    Centre of mass: (-3.81187e-08 0 -0.020847)
    Orientation: (1 0 6.76837e-09 0 1 0 -6.76837e-09 0 1)
    Linear velocity: (-1.43713e-06 0 -0.0377416)
    Angular velocity: (-0 -1.19743e-06 0)
GAMGPCG:  Solving for pcorr, Initial residual = 1, Final residual = 3.87739e-06, No Iterations 10
GAMGPCG:  Solving for pcorr, Initial residual = 8.77246e-07, Final residual = 8.77246e-07, No Iterations 0
time step continuity errors : sum local = 1.64226e-08, global = -7.82556e-13, cumulative = -6.08046e-10
smoothSolver:  Solving for alpha.water, Initial residual = 1.6371e-05, Final residual = 7.92163e-09, No Iterations 1
Phase-1 volume fraction = 0.517096  Min(alpha.water) = -6.95368e-08  Max(alpha.water) = 1.00124
Applying the previous iteration compression flux
MULES: Correcting alpha.water
MULES: Correcting alpha.water
MULES: Correcting alpha.water
Phase-1 volume fraction = 0.517096  Min(alpha.water) = -6.94224e-05  Max(alpha.water) = 1.00124
GAMG:  Solving for p_rgh, Initial residual = 1.93624e-05, Final residual = 8.42488e-08, No Iterations 4
GAMGPCG:  Solving for p_rgh, Initial residual = 1.9281e-07, Final residual = 2.90459e-09, No Iterations 2
time step continuity errors : sum local = 2.18519e-09, global = 8.78873e-11, cumulative = -5.20159e-10
ExecutionTime = 54.7 s  ClockTime = 53 s

End

