/*---------------------------------------------------------------------------*\
| =========                 |                                                 |
| \\      /  F ield         | OpenFOAM: The Open Source CFD Toolbox           |
|  \\    /   O peration     | Version:  2306                                  |
|   \\  /    A nd           | Website:  www.openfoam.com                      |
|    \\/     M anipulation  |                                                 |
\*---------------------------------------------------------------------------*/
Build  : _fbf00d6b-20230626 OPENFOAM=2306 version=2306
Arch   : "LSB;label=32;scalar=64"
Exec   : overInterDyMFoam
Date   : Aug 22 2023
Time   : 15:26:20
Host   : 74a17a599c3a
PID    : 310
I/O    : uncollated
Case   : /data/eun/foam-v2306/foamMooring/tutorial/sixDoF_2D/overset/background
nProcs : 1
trapFpe: Floating point exception trapping enabled (FOAM_SIGFPE).
fileModificationChecking : Monitoring run-time modified files using timeStampMaster (fileModificationSkew 5, maxFileModificationPolls 20)
allowSystemOperations : Allowing user-supplied system call operations

// * * * * * * * * * * * * * * * * * * * * * * * * * * * * * * * * * * * * * //
Create time

Create mesh for time = 0

Selecting dynamicFvMesh dynamicOversetFvMesh
Selecting motion solver: sixDoFRigidBodyMotion
Applying motion to entire mesh
Selecting sixDoFSolver Newmark

 Running MoorDyn (v2.a10, 2022-01-01)
   NOTE: This is an alpha version of MoorDyn v2, intended for testing and debugging.
         MoorDyn v2 has significant ongoing input file changes from v1.
   Copyright: (C) 2021 National Renewable Energy Laboratory, (C) 2014-2019 Matt Hall
   This program is released under the GNU General Public License v3.
The filename is Mooring/lines_v2.txt
Generated entities:
	nLineTypes  = 1
	nRodTypes   = 0
	nPoints     = 8
	nBodies     = 1
	nRods       = 0
	nLines      = 4
	nFails      = 0
	nFreeBodies = 0
	nFreeRods   = 0
	nFreePoints  = 0
	nCpldBodies = 1
	nCpldRods   = 0
	nCpldPoints = 0
Time integrator = 2nd order Runge-Kutta
No Waves or Currents, or set externally
Create moorDynR2 using MoorDyn v2.
Translational constraint tensor (1 -0 -0 -0 0 -0 -0 -0 1)
Rotational constraint tensor (0 0 0 0 1 0 0 0 0)

PIMPLE: Operating solver in PISO mode

Reading field p_rgh

Reading field U

Reading/calculating face flux field phi

Creating cellMask field to block out hole cells

Creating interpolatedCells field 

Reading transportProperties

Selecting incompressible transport model Newtonian
Selecting incompressible transport model Newtonian
Selecting turbulence model type laminar
Selecting laminar stress model Stokes

Reading g

Reading hRef
Calculating field g.h

No MRF models present

No finite volume options present
Reading/calculating face velocity Uf

Courant Number mean: 0 max: 0

Starting time loop

Courant Number mean: 0 max: 0
Interface Courant Number mean: 0 max: 0
deltaT = 0.00060241
Time = 0.00060241

PIMPLE: iteration 1
forces forces:
    rho: rho
    Not including porosity effects

Restraint moorDynR2: Creating mooring system...
Initializing coupled Body 0 in 0, 0, -0.015...
  - Line1:
    ID: 1
    UnstrLen: 1.455
    N   : 40
    d   : 0.003656
    rho : 5782.11
    E   : 2.76246e+06
    EI  : 0
    BAin: -1
    Can : 1
    Cat : 0
    Cdn : 1.6
    Cdt : 0.05
    ww_l: 0.489908
Line 1 damping set to 4597.21 Ns = 0.048261 Pa-s, based on input of -1
WRN /data/eun/foam-v2306/foamMooring/thirdParty/MoorDyn/source/Line.cpp:498 initialize(): Wrong catenary initial profile for Line, intializing as linear 1
Initialized Line 1
  - Line2:
    ID: 2
    UnstrLen: 1.455
    N   : 40
    d   : 0.003656
    rho : 5782.11
    E   : 2.76246e+06
    EI  : 0
    BAin: -1
    Can : 1
    Cat : 0
    Cdn : 1.6
    Cdt : 0.05
    ww_l: 0.489908
Line 2 damping set to 4597.21 Ns = 0.048261 Pa-s, based on input of -1
WRN /data/eun/foam-v2306/foamMooring/thirdParty/MoorDyn/source/Line.cpp:498 initialize(): Wrong catenary initial profile for Line, intializing as linear 2
Initialized Line 2
  - Line3:
    ID: 3
    UnstrLen: 1.455
    N   : 40
    d   : 0.003656
    rho : 5782.11
    E   : 2.76246e+06
    EI  : 0
    BAin: -1
    Can : 1
    Cat : 0
    Cdn : 1.6
    Cdt : 0.05
    ww_l: 0.489908
Line 3 damping set to 4597.21 Ns = 0.048261 Pa-s, based on input of -1
WRN /data/eun/foam-v2306/foamMooring/thirdParty/MoorDyn/source/Line.cpp:498 initialize(): Wrong catenary initial profile for Line, intializing as linear 3
Initialized Line 3
  - Line4:
    ID: 4
    UnstrLen: 1.455
    N   : 40
    d   : 0.003656
    rho : 5782.11
    E   : 2.76246e+06
    EI  : 0
    BAin: -1
    Can : 1
    Cat : 0
    Cdn : 1.6
    Cdt : 0.05
    ww_l: 0.489908
Line 4 damping set to 4597.21 Ns = 0.048261 Pa-s, based on input of -1
WRN /data/eun/foam-v2306/foamMooring/thirdParty/MoorDyn/source/Line.cpp:498 initialize(): Wrong catenary initial profile for Line, intializing as linear 4
Initialized Line 4
Finalizing ICs using dynamic relaxation (5X normal drag)
WRN /data/eun/foam-v2306/foamMooring/thirdParty/MoorDyn/source/MoorDyn2.cpp:384 Init(): Fairlead tensions did not converged
Remaining error after 5.1 s = 0.343179% on line 1
Best score at 4.7 s = 0.242875% on line 1
No Waves or Currents, or set externally
MoorDyn module initialized!
MoorDyn module saved at t = 0 s
X[6]: (0 0 -0.015), (0 0 0)
XD[6]: (0 0 0), (0 0 0)
0.00060241: force (0 0 -1.75025), moment (0 0 0)
6-DoF rigid body motion
    Centre of rotation: (-4.79944e-24 0 -0.015)
    Centre of mass: (-4.79944e-24 0 -0.015)
    Orientation: (1 0 3.12386e-22 0 1 0 -3.12386e-22 0 1)
    Linear velocity: (-1.59341e-20 0 -7.91975e-05)
    Angular velocity: (0 1.03712e-18 0)
inverseDistance : detected 2 mesh regions
    zone:0 nCells:80000  voxels:(284 1 284) bb:(-3.50001 -0.10001 -0.50001) (6.50001 0.10001 0.30001)
    zone:1 nCells:960  voxels:(284 1 284) bb:(-0.200001 -0.100001 -0.180001) (0.200001 0.100001 0.150001)
Overset analysis : nCells : 80960
    calculated   : 80420
    interpolated : 210 (from local:210  mixed local/remote:0  remote:0)
    hole         : 330

Selecting waveModel StokesII
Wave model: patch inlet
    Type : StokesII
    Velocity field name : U
    Phase fraction field name : alpha.water
    Transformation from local to global system : (1 -0 -0 0 1 0 -0 -0 1)
    Number of paddles: 1
    Reference water depth : 0.5
    Active absorption: 1
    Ramp time : 1.6
    Wave height : 0.12
    Wave angle  : 0
    Wave period : 1.6
    Wave length : 3.07813
    Wave phase : 4.71239
    Wave type: Intermediate
Updating StokesII wave model for patch inlet
Selecting waveModel shallowWaterAbsorption
Wave model: patch outlet
    Type : shallowWaterAbsorption
    Velocity field name : U
    Phase fraction field name : alpha.water
    Transformation from local to global system : (-1 -0 -0 0 -1 0 -0 -0 1)
    Number of paddles: 1
    Reference water depth : 0.5
    Active absorption: 1
Updating shallowWaterAbsorption wave model for patch outlet
Execution time for mesh.update() = 7.52 s
smoothSolver:  Solving for alpha.water, Initial residual = 2.8296e-10, Final residual = 2.8296e-10, No Iterations 0
Phase-1 volume fraction = 0.62364  Min(alpha.water) = 0  Max(alpha.water) = 1
MULES: Correcting alpha.water
MULES: Correcting alpha.water
Phase-1 volume fraction = 0.62364  Min(alpha.water) = 0  Max(alpha.water) = 1
Updating StokesII wave model for patch inlet
smoothSolver:  Solving for alpha.water, Initial residual = 2.8296e-10, Final residual = 2.8296e-10, No Iterations 0
Phase-1 volume fraction = 0.62364  Min(alpha.water) = 0  Max(alpha.water) = 1
MULES: Correcting alpha.water
MULES: Correcting alpha.water
Phase-1 volume fraction = 0.62364  Min(alpha.water) = 0  Max(alpha.water) = 1
Updating StokesII wave model for patch inlet
DILUPBiCGStab:  Solving for p_rgh, Initial residual = 1, Final residual = 0.00894631, No Iterations 1
time step continuity errors : sum local = 2.50604e-07, global = 2.40311e-07, cumulative = 2.40311e-07
DILUPBiCGStab:  Solving for p_rgh, Initial residual = 0.00399841, Final residual = 3.99158e-05, No Iterations 34
time step continuity errors : sum local = 2.5468e-09, global = 2.5082e-09, cumulative = 2.42819e-07
DILUPBiCGStab:  Solving for p_rgh, Initial residual = 8.46941e-06, Final residual = 7.64226e-10, No Iterations 77
time step continuity errors : sum local = 2.32816e-13, global = 1.17586e-13, cumulative = 2.42819e-07
ExecutionTime = 8.46 s  ClockTime = 9 s

Courant Number mean: 1.39807e-05 max: 0.0169598
Interface Courant Number mean: 1.29613e-08 max: 0.000276446
deltaT = 0.000726435
Time = 0.00132884

PIMPLE: iteration 1
forces forces:
    rho: rho
    Not including porosity effects

Restraint moorDynR2: MoorDyn module saved at t = 0.00060241 s
X[6]: (-4.79944e-24 0 -0.015), (0 3.12386e-22 0)
XD[6]: (-1.59341e-20 0 -7.91975e-05), (0 1.03712e-18 0)
0.00132884: force (0 0 -1.74992), moment (0 0 0)
6-DoF rigid body motion
    Centre of rotation: (-7.49553e-14 0 -0.0150002)
    Centre of mass: (-7.49553e-14 0 -0.0150002)
    Orientation: (1 0 -9.15499e-13 0 1 0 9.15499e-13 0 1)
    Linear velocity: (-2.06365e-10 0 -0.000287886)
    Angular velocity: (0 -2.52052e-09 0)
inverseDistance : detected 2 mesh regions
    zone:0 nCells:80000  voxels:(284 1 284) bb:(-3.50001 -0.10001 -0.50001) (6.50001 0.10001 0.30001)
    zone:1 nCells:960  voxels:(284 1 284) bb:(-0.200001 -0.100001 -0.180001) (0.200001 0.100001 0.15)
Overset analysis : nCells : 80960
    calculated   : 80420
    interpolated : 210 (from local:210  mixed local/remote:0  remote:0)
    hole         : 330

Updating StokesII wave model for patch inlet
Updating shallowWaterAbsorption wave model for patch outlet
Execution time for mesh.update() = 0.53 s
Updating StokesII wave model for patch inlet
smoothSolver:  Solving for alpha.water, Initial residual = 1.67924e-08, Final residual = 4.33255e-14, No Iterations 1
Phase-1 volume fraction = 0.62364  Min(alpha.water) = 0  Max(alpha.water) = 1
MULES: Correcting alpha.water
MULES: Correcting alpha.water
Phase-1 volume fraction = 0.62364  Min(alpha.water) = -5.08921e-49  Max(alpha.water) = 1
Updating StokesII wave model for patch inlet
smoothSolver:  Solving for alpha.water, Initial residual = 1.67888e-08, Final residual = 4.33164e-14, No Iterations 1
Phase-1 volume fraction = 0.62364  Min(alpha.water) = 0  Max(alpha.water) = 1
MULES: Correcting alpha.water
MULES: Correcting alpha.water
Phase-1 volume fraction = 0.62364  Min(alpha.water) = -1.01784e-48  Max(alpha.water) = 1
Updating StokesII wave model for patch inlet
DILUPBiCGStab:  Solving for p_rgh, Initial residual = 0.0013935, Final residual = 1.38748e-05, No Iterations 7
time step continuity errors : sum local = 6.98482e-09, global = -1.68928e-09, cumulative = 2.4113e-07
DILUPBiCGStab:  Solving for p_rgh, Initial residual = 1.84723e-05, Final residual = 1.76416e-07, No Iterations 42
time step continuity errors : sum local = 9.83067e-11, global = -9.49524e-11, cumulative = 2.41035e-07
DILUPBiCGStab:  Solving for p_rgh, Initial residual = 2.61203e-07, Final residual = 5.73463e-10, No Iterations 49
time step continuity errors : sum local = 2.65991e-13, global = -8.86885e-14, cumulative = 2.41035e-07
ExecutionTime = 9.39 s  ClockTime = 9 s

Courant Number mean: 3.62654e-05 max: 0.0380085
Interface Courant Number mean: 3.47347e-08 max: 0.000754428
deltaT = 0.000869128
Time = 0.00219797

PIMPLE: iteration 1
forces forces:
    rho: rho
    Not including porosity effects

Restraint moorDynR2: MoorDyn module saved at t = 0.00132884 s
X[6]: (-7.49553e-14 0 -0.0150002), (0 -9.15499e-13 0)
XD[6]: (-2.06365e-10 0 -0.000287886), (0 -2.52052e-09 0)
0.00219797: force (9.17708e-10 0 -1.7491), moment (0 7.78418e-11 0)
6-DoF rigid body motion
    Centre of rotation: (-4.96575e-13 0 -0.0150005)
    Centre of mass: (-4.96575e-13 0 -0.0150005)
    Orientation: (1 0 -5.98021e-12 0 1 0 5.98021e-12 0 1)
    Linear velocity: (-7.63849e-10 0 -0.000494862)
    Angular velocity: (0 -9.13417e-09 0)
inverseDistance : detected 2 mesh regions
    zone:0 nCells:80000  voxels:(284 1 284) bb:(-3.50001 -0.10001 -0.50001) (6.50001 0.10001 0.30001)
    zone:1 nCells:960  voxels:(284 1 284) bb:(-0.200001 -0.100001 -0.180001) (0.200001 0.100001 0.15)
Overset analysis : nCells : 80960
    calculated   : 80420
    interpolated : 210 (from local:210  mixed local/remote:0  remote:0)
    hole         : 330

Updating StokesII wave model for patch inlet
Updating shallowWaterAbsorption wave model for patch outlet
Execution time for mesh.update() = 0.53 s
Updating StokesII wave model for patch inlet
smoothSolver:  Solving for alpha.water, Initial residual = 3.70514e-08, Final residual = 1.94643e-13, No Iterations 1
Phase-1 volume fraction = 0.62364  Min(alpha.water) = -1.01784e-48  Max(alpha.water) = 1
MULES: Correcting alpha.water
MULES: Correcting alpha.water
Phase-1 volume fraction = 0.62364  Min(alpha.water) = -2.8757e-27  Max(alpha.water) = 1
Updating StokesII wave model for patch inlet
smoothSolver:  Solving for alpha.water, Initial residual = 3.70421e-08, Final residual = 1.94626e-13, No Iterations 1
Phase-1 volume fraction = 0.62364  Min(alpha.water) = -8.77595e-32  Max(alpha.water) = 1
MULES: Correcting alpha.water
MULES: Correcting alpha.water
Phase-1 volume fraction = 0.62364  Min(alpha.water) = -5.7514e-27  Max(alpha.water) = 1
Updating StokesII wave model for patch inlet
DILUPBiCGStab:  Solving for p_rgh, Initial residual = 0.00104872, Final residual = 1.03242e-05, No Iterations 15
time step continuity errors : sum local = 6.63906e-09, global = -6.13066e-09, cumulative = 2.34904e-07
DILUPBiCGStab:  Solving for p_rgh, Initial residual = 2.22729e-05, Final residual = 2.19021e-07, No Iterations 33
time step continuity errors : sum local = 1.34807e-10, global = -1.24666e-10, cumulative = 2.34779e-07
DILUPBiCGStab:  Solving for p_rgh, Initial residual = 2.51932e-07, Final residual = 6.89607e-10, No Iterations 47
time step continuity errors : sum local = 4.14526e-13, global = -2.1431e-13, cumulative = 2.34779e-07
ExecutionTime = 10.32 s  ClockTime = 10 s

Courant Number mean: 6.81892e-05 max: 0.0678436
Interface Courant Number mean: 6.52405e-08 max: 0.00146383
deltaT = 0.00103917
Time = 0.00323715

PIMPLE: iteration 1
forces forces:
    rho: rho
    Not including porosity effects

Restraint moorDynR2: MoorDyn module saved at t = 0.00219797 s
X[6]: (-4.96575e-13 0 -0.0150005), (0 -5.98021e-12 0)
XD[6]: (-7.63849e-10 0 -0.000494862), (0 -9.13417e-09 0)
0.00323715: force (3.33055e-09 0 -1.7483), moment (0 2.84466e-10 0)
6-DoF rigid body motion
    Centre of rotation: (-1.67457e-12 0 -0.0150011)
    Centre of mass: (-1.67457e-12 0 -0.0150011)
    Orientation: (1 0 -1.98346e-11 0 1 0 1.98346e-11 0 1)
    Linear velocity: (-1.50332e-09 0 -0.000623302)
    Angular velocity: (0 -1.753e-08 -0)
inverseDistance : detected 2 mesh regions
    zone:0 nCells:80000  voxels:(284 1 284) bb:(-3.50001 -0.10001 -0.50001) (6.50001 0.10001 0.30001)
    zone:1 nCells:960  voxels:(284 1 284) bb:(-0.200001 -0.100001 -0.180002) (0.200001 0.100001 0.149999)
Overset analysis : nCells : 80960
    calculated   : 80420
    interpolated : 210 (from local:210  mixed local/remote:0  remote:0)
    hole         : 330

Updating StokesII wave model for patch inlet
Updating shallowWaterAbsorption wave model for patch outlet
Execution time for mesh.update() = 0.51 s
Updating StokesII wave model for patch inlet
smoothSolver:  Solving for alpha.water, Initial residual = 6.6717e-08, Final residual = 5.74386e-13, No Iterations 1
Phase-1 volume fraction = 0.62364  Min(alpha.water) = -8.77595e-32  Max(alpha.water) = 1
MULES: Correcting alpha.water
MULES: Correcting alpha.water
Phase-1 volume fraction = 0.62364  Min(alpha.water) = -2.74965e-26  Max(alpha.water) = 1
Updating StokesII wave model for patch inlet
smoothSolver:  Solving for alpha.water, Initial residual = 6.66934e-08, Final residual = 5.74316e-13, No Iterations 1
Phase-1 volume fraction = 0.62364  Min(alpha.water) = -8.77595e-32  Max(alpha.water) = 1
MULES: Correcting alpha.water
MULES: Correcting alpha.water
Phase-1 volume fraction = 0.62364  Min(alpha.water) = -2.14896e-28  Max(alpha.water) = 1
Updating StokesII wave model for patch inlet
DILUPBiCGStab:  Solving for p_rgh, Initial residual = 0.000853516, Final residual = 8.08194e-06, No Iterations 20
time step continuity errors : sum local = 6.63823e-09, global = -3.73583e-09, cumulative = 2.31043e-07
DILUPBiCGStab:  Solving for p_rgh, Initial residual = 2.69833e-05, Final residual = 1.22083e-07, No Iterations 42
time step continuity errors : sum local = 1.06056e-10, global = 8.66442e-11, cumulative = 2.3113e-07
DILUPBiCGStab:  Solving for p_rgh, Initial residual = 1.83901e-07, Final residual = 8.706e-10, No Iterations 54
time step continuity errors : sum local = 8.0116e-13, global = -3.77855e-14, cumulative = 2.3113e-07
ExecutionTime = 11.27 s  ClockTime = 11 s

Courant Number mean: 0.000112241 max: 0.109737
Interface Courant Number mean: 1.05319e-07 max: 0.00247551
deltaT = 0.0012306
Time = 0.00446775

PIMPLE: iteration 1
forces forces:
    rho: rho
    Not including porosity effects

Restraint moorDynR2: MoorDyn module saved at t = 0.00323715 s
X[6]: (-1.67457e-12 0 -0.0150011), (0 -1.98346e-11 0)
XD[6]: (-1.50332e-09 0 -0.000623302), (0 -1.753e-08 -0)
0.00446775: force (6.35016e-09 0 -1.74779), moment (0 5.47804e-10 0)
6-DoF rigid body motion
    Centre of rotation: (-4.04358e-12 0 -0.0150019)
    Centre of mass: (-4.04358e-12 0 -0.0150019)
    Orientation: (1 0 -4.71492e-11 0 1 0 4.71492e-11 0 1)
    Linear velocity: (-2.34685e-09 0 -0.00076754)
    Angular velocity: (0 -2.68623e-08 0)
inverseDistance : detected 2 mesh regions
    zone:0 nCells:80000  voxels:(284 1 284) bb:(-3.50001 -0.10001 -0.50001) (6.50001 0.10001 0.30001)
    zone:1 nCells:960  voxels:(284 1 284) bb:(-0.200001 -0.100001 -0.180002) (0.200001 0.100001 0.149999)
Overset analysis : nCells : 80960
    calculated   : 80420
    interpolated : 210 (from local:210  mixed local/remote:0  remote:0)
    hole         : 330

Updating StokesII wave model for patch inlet
Updating shallowWaterAbsorption wave model for patch outlet
Execution time for mesh.update() = 0.51 s
Updating StokesII wave model for patch inlet
smoothSolver:  Solving for alpha.water, Initial residual = 1.09788e-07, Final residual = 1.37898e-12, No Iterations 1
Phase-1 volume fraction = 0.62364  Min(alpha.water) = -8.77595e-32  Max(alpha.water) = 1
MULES: Correcting alpha.water
MULES: Correcting alpha.water
Phase-1 volume fraction = 0.62364  Min(alpha.water) = -2.03586e-27  Max(alpha.water) = 1
Updating StokesII wave model for patch inlet
smoothSolver:  Solving for alpha.water, Initial residual = 1.09732e-07, Final residual = 1.37876e-12, No Iterations 1
Phase-1 volume fraction = 0.62364  Min(alpha.water) = -8.77595e-32  Max(alpha.water) = 1
MULES: Correcting alpha.water
MULES: Correcting alpha.water
Phase-1 volume fraction = 0.62364  Min(alpha.water) = -2.03586e-27  Max(alpha.water) = 1
Updating StokesII wave model for patch inlet
DILUPBiCGStab:  Solving for p_rgh, Initial residual = 0.000630599, Final residual = 6.05777e-06, No Iterations 25
time step continuity errors : sum local = 7.59566e-09, global = -3.54264e-09, cumulative = 2.27587e-07
DILUPBiCGStab:  Solving for p_rgh, Initial residual = 3.0201e-05, Final residual = 2.6864e-07, No Iterations 35
time step continuity errors : sum local = 3.49065e-10, global = -2.90525e-11, cumulative = 2.27558e-07
DILUPBiCGStab:  Solving for p_rgh, Initial residual = 3.99539e-07, Final residual = 6.28118e-10, No Iterations 58
time step continuity errors : sum local = 8.5815e-13, global = 8.52045e-13, cumulative = 2.27559e-07
ExecutionTime = 12.24 s  ClockTime = 12 s

Courant Number mean: 0.000169592 max: 0.164731
Interface Courant Number mean: 1.55185e-07 max: 0.00382703
deltaT = 0.00146878
Time = 0.00593653

PIMPLE: iteration 1
forces forces:
    rho: rho
    Not including porosity effects

Restraint moorDynR2: MoorDyn module saved at t = 0.00446775 s
X[6]: (-4.04358e-12 0 -0.0150019), (0 -4.71492e-11 0)
XD[6]: (-2.34685e-09 0 -0.00076754), (0 -2.68623e-08 0)
0.00593653: force (9.61241e-09 0 -1.7472), moment (0 8.39687e-10 0)
6-DoF rigid body motion
    Centre of rotation: (-8.17289e-12 0 -0.0150033)
    Centre of mass: (-8.17289e-12 0 -0.0150033)
    Orientation: (1 0 -9.43608e-11 0 1 0 9.43608e-11 0 1)
    Linear velocity: (-3.27592e-09 0 -0.0010441)
    Angular velocity: (0 -3.74243e-08 -0)
inverseDistance : detected 2 mesh regions
    zone:0 nCells:80000  voxels:(284 1 284) bb:(-3.50001 -0.10001 -0.50001) (6.50001 0.10001 0.30001)
    zone:1 nCells:960  voxels:(284 1 284) bb:(-0.200001 -0.100001 -0.180004) (0.200001 0.100001 0.149997)
Overset analysis : nCells : 80960
    calculated   : 80420
    interpolated : 210 (from local:210  mixed local/remote:0  remote:0)
    hole         : 330

Updating StokesII wave model for patch inlet
Updating shallowWaterAbsorption wave model for patch outlet
Execution time for mesh.update() = 0.56 s
Updating StokesII wave model for patch inlet
smoothSolver:  Solving for alpha.water, Initial residual = 1.75153e-07, Final residual = 3.12068e-12, No Iterations 1
Phase-1 volume fraction = 0.62364  Min(alpha.water) = -8.77595e-32  Max(alpha.water) = 1
MULES: Correcting alpha.water
MULES: Correcting alpha.water
Phase-1 volume fraction = 0.62364  Min(alpha.water) = -3.03737e-28  Max(alpha.water) = 1
Updating StokesII wave model for patch inlet
smoothSolver:  Solving for alpha.water, Initial residual = 1.7503e-07, Final residual = 3.12027e-12, No Iterations 1
Phase-1 volume fraction = 0.62364  Min(alpha.water) = -8.77595e-32  Max(alpha.water) = 1
MULES: Correcting alpha.water
MULES: Correcting alpha.water
Phase-1 volume fraction = 0.62364  Min(alpha.water) = -6.22054e-25  Max(alpha.water) = 1
Updating StokesII wave model for patch inlet
DILUPBiCGStab:  Solving for p_rgh, Initial residual = 0.00045547, Final residual = 4.17701e-06, No Iterations 22
time step continuity errors : sum local = 7.95033e-09, global = -7.23399e-09, cumulative = 2.20325e-07
DILUPBiCGStab:  Solving for p_rgh, Initial residual = 3.5194e-05, Final residual = 3.1391e-07, No Iterations 27
time step continuity errors : sum local = 5.69169e-10, global = -4.11067e-11, cumulative = 2.20284e-07
DILUPBiCGStab:  Solving for p_rgh, Initial residual = 6.72514e-07, Final residual = 6.6995e-10, No Iterations 55
time step continuity errors : sum local = 1.20219e-12, global = -9.28417e-13, cumulative = 2.20283e-07
ExecutionTime = 15.43 s  ClockTime = 15 s

Courant Number mean: 0.000246355 max: 0.238099
Interface Courant Number mean: 2.25704e-07 max: 0.00565125
deltaT = 0.00176254
Time = 0.00769907

PIMPLE: iteration 1
forces forces:
    rho: rho
    Not including porosity effects

Restraint moorDynR2: MoorDyn module saved at t = 0.00593653 s
X[6]: (-8.17289e-12 0 -0.0150033), (0 -9.43608e-11 0)
XD[6]: (-3.27592e-09 0 -0.0010441), (0 -3.74243e-08 -0)
0.00769907: force (1.31348e-08 0 -1.74607), moment (0 1.16562e-09 0)
6-DoF rigid body motion
    Centre of rotation: (-1.47646e-11 0 -0.0150054)
    Centre of mass: (-1.47646e-11 0 -0.0150054)
    Orientation: (1 0 -1.71302e-10 0 1 0 1.71302e-10 0 1)
    Linear velocity: (-4.20383e-09 0 -0.00142118)
    Angular velocity: (0 -4.9883e-08 -0)
inverseDistance : detected 2 mesh regions
    zone:0 nCells:80000  voxels:(284 1 284) bb:(-3.50001 -0.10001 -0.50001) (6.50001 0.10001 0.30001)
    zone:1 nCells:960  voxels:(284 1 284) bb:(-0.200001 -0.100001 -0.180006) (0.200001 0.100001 0.149995)
Overset analysis : nCells : 80960
    calculated   : 80420
    interpolated : 210 (from local:210  mixed local/remote:0  remote:0)
    hole         : 330

Updating StokesII wave model for patch inlet
Updating shallowWaterAbsorption wave model for patch outlet
Execution time for mesh.update() = 0.55 s
Updating StokesII wave model for patch inlet
smoothSolver:  Solving for alpha.water, Initial residual = 2.74031e-07, Final residual = 6.93873e-12, No Iterations 1
Phase-1 volume fraction = 0.62364  Min(alpha.water) = -8.77595e-32  Max(alpha.water) = 1
MULES: Correcting alpha.water
MULES: Correcting alpha.water
Phase-1 volume fraction = 0.62364  Min(alpha.water) = -2.38869e-23  Max(alpha.water) = 1
Updating StokesII wave model for patch inlet
smoothSolver:  Solving for alpha.water, Initial residual = 2.73786e-07, Final residual = 6.944e-12, No Iterations 1
Phase-1 volume fraction = 0.62364  Min(alpha.water) = -2.55729e-26  Max(alpha.water) = 1
MULES: Correcting alpha.water
MULES: Correcting alpha.water
Phase-1 volume fraction = 0.62364  Min(alpha.water) = -2.38869e-23  Max(alpha.water) = 1
Updating StokesII wave model for patch inlet
DILUPBiCGStab:  Solving for p_rgh, Initial residual = 0.00051626, Final residual = 4.52351e-06, No Iterations 22
time step continuity errors : sum local = 1.08447e-08, global = -8.66684e-09, cumulative = 2.11616e-07
DILUPBiCGStab:  Solving for p_rgh, Initial residual = 4.2421e-05, Final residual = 3.74605e-07, No Iterations 30
time step continuity errors : sum local = 8.84344e-10, global = 5.21821e-10, cumulative = 2.12138e-07
DILUPBiCGStab:  Solving for p_rgh, Initial residual = 1.12464e-06, Final residual = 9.60747e-10, No Iterations 70
time step continuity errors : sum local = 2.17218e-12, global = 1.05942e-12, cumulative = 2.12139e-07
ExecutionTime = 16.44 s  ClockTime = 16 s

Courant Number mean: 0.000347724 max: 0.332833
Interface Courant Number mean: 3.22022e-07 max: 0.00805075
deltaT = 0.00201433
Time = 0.0097134

PIMPLE: iteration 1
forces forces:
    rho: rho
    Not including porosity effects

Restraint moorDynR2: MoorDyn module saved at t = 0.00769907 s
X[6]: (-1.47646e-11 0 -0.0150054), (0 -1.71302e-10 0)
XD[6]: (-4.20383e-09 0 -0.00142118), (0 -4.9883e-08 -0)
0.0097134: force (1.68951e-08 0 -1.74457), moment (0 1.53007e-09 0)
6-DoF rigid body motion
    Centre of rotation: (-2.37123e-11 0 -0.0150087)
    Centre of mass: (-2.37123e-11 0 -0.0150087)
    Orientation: (1 0 -2.85903e-10 0 1 0 2.85903e-10 0 1)
    Linear velocity: (-4.68022e-09 0 -0.00177583)
    Angular velocity: (0 -6.39027e-08 -0)
inverseDistance : detected 2 mesh regions
    zone:0 nCells:80000  voxels:(284 1 284) bb:(-3.50001 -0.10001 -0.50001) (6.50001 0.10001 0.30001)
    zone:1 nCells:960  voxels:(284 1 284) bb:(-0.200001 -0.100001 -0.180009) (0.200001 0.100001 0.149992)
Overset analysis : nCells : 80960
    calculated   : 80420
    interpolated : 210 (from local:210  mixed local/remote:0  remote:0)
    hole         : 330

Updating StokesII wave model for patch inlet
Updating shallowWaterAbsorption wave model for patch outlet
Execution time for mesh.update() = 0.55 s
Updating StokesII wave model for patch inlet
smoothSolver:  Solving for alpha.water, Initial residual = 3.98465e-07, Final residual = 1.32246e-11, No Iterations 1
Phase-1 volume fraction = 0.62364  Min(alpha.water) = -2.46703e-26  Max(alpha.water) = 1
MULES: Correcting alpha.water
MULES: Correcting alpha.water
Phase-1 volume fraction = 0.62364  Min(alpha.water) = -5.59822e-21  Max(alpha.water) = 1
Updating StokesII wave model for patch inlet
smoothSolver:  Solving for alpha.water, Initial residual = 3.98064e-07, Final residual = 1.32539e-11, No Iterations 1
Phase-1 volume fraction = 0.62364  Min(alpha.water) = -4.10891e-25  Max(alpha.water) = 1
MULES: Correcting alpha.water
MULES: Correcting alpha.water
Phase-1 volume fraction = 0.62364  Min(alpha.water) = -6.94346e-21  Max(alpha.water) = 1
Updating StokesII wave model for patch inlet
DILUPBiCGStab:  Solving for p_rgh, Initial residual = 0.000633142, Final residual = 6.31356e-06, No Iterations 22
time step continuity errors : sum local = 1.81497e-08, global = -1.68534e-08, cumulative = 1.95286e-07
DILUPBiCGStab:  Solving for p_rgh, Initial residual = 4.55719e-05, Final residual = 3.66868e-07, No Iterations 27
time step continuity errors : sum local = 1.04361e-09, global = 3.12518e-10, cumulative = 1.95598e-07
DILUPBiCGStab:  Solving for p_rgh, Initial residual = 1.44323e-06, Final residual = 8.33193e-10, No Iterations 58
time step continuity errors : sum local = 2.36574e-12, global = -1.95482e-12, cumulative = 1.95596e-07
ExecutionTime = 17.41 s  ClockTime = 17 s

Courant Number mean: 0.00045222 max: 0.423164
Interface Courant Number mean: 4.24222e-07 max: 0.0105009
deltaT = 0.00223814
Time = 0.0119515

PIMPLE: iteration 1
forces forces:
    rho: rho
    Not including porosity effects

Restraint moorDynR2: MoorDyn module saved at t = 0.0097134 s
X[6]: (-2.37123e-11 0 -0.0150087), (0 -2.85903e-10 0)
XD[6]: (-4.68022e-09 0 -0.00177583), (0 -6.39027e-08 -0)
0.0119515: force (1.97219e-08 0 -1.74318), moment (0 1.85159e-09 0)
6-DoF rigid body motion
    Centre of rotation: (-3.31181e-11 0 -0.015013)
    Centre of mass: (-3.31181e-11 0 -0.015013)
    Orientation: (1 0 -4.4605e-10 0 1 0 4.4605e-10 0 1)
    Linear velocity: (-3.72484e-09 0 -0.00209826)
    Angular velocity: (0 -7.92038e-08 0)
inverseDistance : detected 2 mesh regions
    zone:0 nCells:80000  voxels:(284 1 284) bb:(-3.50001 -0.10001 -0.50001) (6.50001 0.10001 0.30001)
    zone:1 nCells:960  voxels:(284 1 284) bb:(-0.200001 -0.100001 -0.180014) (0.200001 0.100001 0.149988)
Overset analysis : nCells : 80960
    calculated   : 80420
    interpolated : 210 (from local:210  mixed local/remote:0  remote:0)
    hole         : 330

Updating StokesII wave model for patch inlet
Updating shallowWaterAbsorption wave model for patch outlet
Execution time for mesh.update() = 0.55 s
Updating StokesII wave model for patch inlet
smoothSolver:  Solving for alpha.water, Initial residual = 5.44912e-07, Final residual = 2.14507e-11, No Iterations 1
Phase-1 volume fraction = 0.62364  Min(alpha.water) = -8.60986e-25  Max(alpha.water) = 1
MULES: Correcting alpha.water
MULES: Correcting alpha.water
Phase-1 volume fraction = 0.62364  Min(alpha.water) = -2.09719e-14  Max(alpha.water) = 1
Updating StokesII wave model for patch inlet
smoothSolver:  Solving for alpha.water, Initial residual = 5.44355e-07, Final residual = 2.15362e-11, No Iterations 1
Phase-1 volume fraction = 0.62364  Min(alpha.water) = -1.15972e-17  Max(alpha.water) = 1
MULES: Correcting alpha.water
MULES: Correcting alpha.water
Phase-1 volume fraction = 0.62364  Min(alpha.water) = -2.52973e-14  Max(alpha.water) = 1
Updating StokesII wave model for patch inlet
DILUPBiCGStab:  Solving for p_rgh, Initial residual = 0.000701393, Final residual = 6.5539e-06, No Iterations 18
time step continuity errors : sum local = 2.21447e-08, global = -1.44164e-08, cumulative = 1.8118e-07
DILUPBiCGStab:  Solving for p_rgh, Initial residual = 4.10585e-05, Final residual = 3.20478e-07, No Iterations 31
time step continuity errors : sum local = 1.09182e-09, global = 6.76892e-10, cumulative = 1.81857e-07
DILUPBiCGStab:  Solving for p_rgh, Initial residual = 1.5725e-06, Final residual = 9.34604e-10, No Iterations 58
time step continuity errors : sum local = 3.31468e-12, global = 1.34095e-12, cumulative = 1.81858e-07
ExecutionTime = 18.39 s  ClockTime = 18 s

Courant Number mean: 0.000556605 max: 0.504649
Interface Courant Number mean: 6.91403e-07 max: 0.0128865
deltaT = 0.00223814
Time = 0.0141897

PIMPLE: iteration 1
forces forces:
    rho: rho
    Not including porosity effects

Restraint moorDynR2: MoorDyn module saved at t = 0.0119515 s
X[6]: (-3.31181e-11 0 -0.015013), (0 -4.4605e-10 0)
XD[6]: (-3.72484e-09 0 -0.00209826), (0 -7.92038e-08 0)
0.0141897: force (1.93404e-08 0 -1.74188), moment (0 1.97067e-09 0)
6-DoF rigid body motion
    Centre of rotation: (-3.75021e-11 0 -0.0150181)
    Centre of mass: (-3.75021e-11 0 -0.0150181)
    Orientation: (1 0 -6.3987e-10 0 1 0 6.3987e-10 0 1)
    Linear velocity: (-1.92689e-10 0 -0.00244424)
    Angular velocity: (0 -9.39935e-08 0)
inverseDistance : detected 2 mesh regions
    zone:0 nCells:80000  voxels:(284 1 284) bb:(-3.50001 -0.10001 -0.50001) (6.50001 0.10001 0.30001)
    zone:1 nCells:960  voxels:(284 1 284) bb:(-0.200001 -0.100001 -0.180019) (0.200001 0.100001 0.149982)
Overset analysis : nCells : 80960
    calculated   : 80420
    interpolated : 210 (from local:210  mixed local/remote:0  remote:0)
    hole         : 330

Updating StokesII wave model for patch inlet
Updating shallowWaterAbsorption wave model for patch outlet
Execution time for mesh.update() = 0.56 s
Updating StokesII wave model for patch inlet
smoothSolver:  Solving for alpha.water, Initial residual = 6.54253e-07, Final residual = 2.61552e-11, No Iterations 1
Phase-1 volume fraction = 0.62364  Min(alpha.water) = -2.62366e-17  Max(alpha.water) = 1
MULES: Correcting alpha.water
MULES: Correcting alpha.water
Phase-1 volume fraction = 0.62364  Min(alpha.water) = -4.03802e-13  Max(alpha.water) = 1
Updating StokesII wave model for patch inlet
smoothSolver:  Solving for alpha.water, Initial residual = 6.53655e-07, Final residual = 2.62959e-11, No Iterations 1
Phase-1 volume fraction = 0.62364  Min(alpha.water) = -1.23663e-16  Max(alpha.water) = 1
MULES: Correcting alpha.water
MULES: Correcting alpha.water
Phase-1 volume fraction = 0.62364  Min(alpha.water) = -4.73262e-13  Max(alpha.water) = 1
Updating StokesII wave model for patch inlet
DILUPBiCGStab:  Solving for p_rgh, Initial residual = 0.000819643, Final residual = 6.02894e-06, No Iterations 16
time step continuity errors : sum local = 2.08945e-08, global = -2.07301e-08, cumulative = 1.61128e-07
DILUPBiCGStab:  Solving for p_rgh, Initial residual = 3.08443e-05, Final residual = 3.07955e-07, No Iterations 40
time step continuity errors : sum local = 1.05683e-09, global = -1.05596e-09, cumulative = 1.60072e-07
DILUPBiCGStab:  Solving for p_rgh, Initial residual = 1.39459e-06, Final residual = 8.65485e-10, No Iterations 76
time step continuity errors : sum local = 2.99259e-12, global = -2.97733e-12, cumulative = 1.60069e-07
ExecutionTime = 19.43 s  ClockTime = 19 s

Courant Number mean: 0.000599543 max: 0.521097
Interface Courant Number mean: 1.64547e-06 max: 0.0181599
deltaT = 0.00210649
Time = 0.0162962

PIMPLE: iteration 1
forces forces:
    rho: rho
    Not including porosity effects

Restraint moorDynR2: MoorDyn module saved at t = 0.0141897 s
X[6]: (-3.75021e-11 0 -0.0150181), (0 -6.3987e-10 0)
XD[6]: (-1.92689e-10 0 -0.00244424), (0 -9.39935e-08 0)
0.0162962: force (1.26938e-08 0 -1.74048), moment (0 1.66746e-09 0)
6-DoF rigid body motion
    Centre of rotation: (-3.13126e-11 0 -0.0150236)
    Centre of mass: (-3.13126e-11 0 -0.0150236)
    Orientation: (1 0 -8.514e-10 0 1 0 8.514e-10 0 1)
    Linear velocity: (6.06931e-09 0 -0.00280895)
    Angular velocity: (0 -1.06843e-07 0)
inverseDistance : detected 2 mesh regions
    zone:0 nCells:80000  voxels:(284 1 284) bb:(-3.50001 -0.10001 -0.50001) (6.50001 0.10001 0.30001)
    zone:1 nCells:960  voxels:(284 1 284) bb:(-0.200001 -0.100001 -0.180024) (0.200001 0.100001 0.149977)
Overset analysis : nCells : 80960
    calculated   : 80420
    interpolated : 210 (from local:210  mixed local/remote:0  remote:0)
    hole         : 330

Updating StokesII wave model for patch inlet
Updating shallowWaterAbsorption wave model for patch outlet
Execution time for mesh.update() = 0.55 s
Updating StokesII wave model for patch inlet
smoothSolver:  Solving for alpha.water, Initial residual = 7.10713e-07, Final residual = 2.56927e-11, No Iterations 1
Phase-1 volume fraction = 0.623639  Min(alpha.water) = -2.15369e-16  Max(alpha.water) = 1
MULES: Correcting alpha.water
MULES: Correcting alpha.water
Phase-1 volume fraction = 0.623639  Min(alpha.water) = -2.15539e-12  Max(alpha.water) = 1
Updating StokesII wave model for patch inlet
smoothSolver:  Solving for alpha.water, Initial residual = 7.10187e-07, Final residual = 2.58527e-11, No Iterations 1
Phase-1 volume fraction = 0.623639  Min(alpha.water) = -2.23591e-16  Max(alpha.water) = 1
MULES: Correcting alpha.water
MULES: Correcting alpha.water
Phase-1 volume fraction = 0.623639  Min(alpha.water) = -2.45357e-12  Max(alpha.water) = 1
Updating StokesII wave model for patch inlet
DILUPBiCGStab:  Solving for p_rgh, Initial residual = 0.0010168, Final residual = 8.10051e-06, No Iterations 14
time step continuity errors : sum local = 2.29358e-08, global = -2.16449e-08, cumulative = 1.38424e-07
DILUPBiCGStab:  Solving for p_rgh, Initial residual = 2.84914e-05, Final residual = 2.41806e-07, No Iterations 31
time step continuity errors : sum local = 7.0303e-10, global = -3.69114e-10, cumulative = 1.38055e-07
DILUPBiCGStab:  Solving for p_rgh, Initial residual = 1.19739e-06, Final residual = 9.89006e-10, No Iterations 63
time step continuity errors : sum local = 2.81375e-12, global = -1.37226e-12, cumulative = 1.38054e-07
ExecutionTime = 22.59 s  ClockTime = 22 s

Courant Number mean: 0.000595364 max: 0.495427
Interface Courant Number mean: 1.60134e-06 max: 0.0151654
deltaT = 0.00210649
Time = 0.0184027

PIMPLE: iteration 1
forces forces:
    rho: rho
    Not including porosity effects

Restraint moorDynR2: MoorDyn module saved at t = 0.0162962 s
X[6]: (-3.13126e-11 0 -0.0150236), (0 -8.514e-10 0)
XD[6]: (6.06931e-09 0 -0.00280895), (0 -1.06843e-07 0)
0.0184027: force (-4.86927e-10 0 -1.73905), moment (0 9.56554e-10 0)
6-DoF rigid body motion
    Centre of rotation: (-9.79196e-12 0 -0.0150299)
    Centre of mass: (-9.79196e-12 0 -0.0150299)
    Orientation: (1 0 -1.08823e-09 0 1 0 1.08823e-09 0 1)
    Linear velocity: (1.43634e-08 0 -0.00315547)
    Angular velocity: (0 -1.18011e-07 0)
inverseDistance : detected 2 mesh regions
    zone:0 nCells:80000  voxels:(284 1 284) bb:(-3.50001 -0.10001 -0.50001) (6.50001 0.10001 0.30001)
    zone:1 nCells:960  voxels:(284 1 284) bb:(-0.200001 -0.100001 -0.18003) (0.200001 0.100001 0.149971)
Overset analysis : nCells : 80960
    calculated   : 80420
    interpolated : 210 (from local:210  mixed local/remote:0  remote:0)
    hole         : 330

Updating StokesII wave model for patch inlet
Updating shallowWaterAbsorption wave model for patch outlet
Execution time for mesh.update() = 0.56 s
Updating StokesII wave model for patch inlet
smoothSolver:  Solving for alpha.water, Initial residual = 7.93768e-07, Final residual = 2.70839e-11, No Iterations 1
Phase-1 volume fraction = 0.623639  Min(alpha.water) = -2.30397e-16  Max(alpha.water) = 1
MULES: Correcting alpha.water
MULES: Correcting alpha.water
Phase-1 volume fraction = 0.623639  Min(alpha.water) = -4.24095e-12  Max(alpha.water) = 1
Updating StokesII wave model for patch inlet
smoothSolver:  Solving for alpha.water, Initial residual = 7.93258e-07, Final residual = 2.72803e-11, No Iterations 1
Phase-1 volume fraction = 0.623639  Min(alpha.water) = -2.40909e-16  Max(alpha.water) = 1
MULES: Correcting alpha.water
MULES: Correcting alpha.water
Phase-1 volume fraction = 0.623639  Min(alpha.water) = -4.76092e-12  Max(alpha.water) = 1
Updating StokesII wave model for patch inlet
DILUPBiCGStab:  Solving for p_rgh, Initial residual = 0.000907796, Final residual = 8.88466e-06, No Iterations 12
time step continuity errors : sum local = 2.31408e-08, global = -2.28151e-08, cumulative = 1.15238e-07
DILUPBiCGStab:  Solving for p_rgh, Initial residual = 2.78875e-05, Final residual = 1.3213e-07, No Iterations 41
time step continuity errors : sum local = 3.68033e-10, global = 2.15014e-10, cumulative = 1.15453e-07
DILUPBiCGStab:  Solving for p_rgh, Initial residual = 1.04489e-06, Final residual = 8.19963e-10, No Iterations 54
time step continuity errors : sum local = 2.23537e-12, global = 1.4891e-12, cumulative = 1.15455e-07
ExecutionTime = 23.58 s  ClockTime = 23 s

Courant Number mean: 0.000622687 max: 0.500185
Interface Courant Number mean: 1.85067e-06 max: 0.0141654
deltaT = 0.00210649
Time = 0.0205092

PIMPLE: iteration 1
forces forces:
    rho: rho
    Not including porosity effects

Restraint moorDynR2: MoorDyn module saved at t = 0.0184027 s
X[6]: (-9.79196e-12 0 -0.0150299), (0 -1.08823e-09 0)
XD[6]: (1.43634e-08 0 -0.00315547), (0 -1.18011e-07 0)
0.0205092: force (-1.85527e-08 0 -1.73771), moment (0 -5.48167e-12 0)
6-DoF rigid body motion
    Centre of rotation: (2.96277e-11 0 -0.0150369)
    Centre of mass: (2.96277e-11 0 -0.0150369)
    Orientation: (1 0 -1.3465e-09 0 1 0 1.3465e-09 0 1)
    Linear velocity: (2.30635e-08 0 -0.00346979)
    Angular velocity: (0 -1.27201e-07 -0)
inverseDistance : detected 2 mesh regions
    zone:0 nCells:80000  voxels:(284 1 284) bb:(-3.50001 -0.10001 -0.50001) (6.50001 0.10001 0.30001)
    zone:1 nCells:960  voxels:(284 1 284) bb:(-0.200001 -0.100001 -0.180037) (0.200001 0.100001 0.149964)
Overset analysis : nCells : 80960
    calculated   : 80420
    interpolated : 210 (from local:210  mixed local/remote:0  remote:0)
    hole         : 330

Updating StokesII wave model for patch inlet
Updating shallowWaterAbsorption wave model for patch outlet
Execution time for mesh.update() = 0.56 s
Updating StokesII wave model for patch inlet
smoothSolver:  Solving for alpha.water, Initial residual = 8.76983e-07, Final residual = 2.90097e-11, No Iterations 1
Phase-1 volume fraction = 0.623639  Min(alpha.water) = -2.50007e-16  Max(alpha.water) = 1
MULES: Correcting alpha.water
MULES: Correcting alpha.water
Phase-1 volume fraction = 0.623639  Min(alpha.water) = -5.66565e-12  Max(alpha.water) = 1
Updating StokesII wave model for patch inlet
smoothSolver:  Solving for alpha.water, Initial residual = 8.76464e-07, Final residual = 2.92458e-11, No Iterations 1
Phase-1 volume fraction = 0.623639  Min(alpha.water) = -1.0436e-17  Max(alpha.water) = 1
MULES: Correcting alpha.water
MULES: Correcting alpha.water
Phase-1 volume fraction = 0.623639  Min(alpha.water) = -6.03581e-12  Max(alpha.water) = 1
Updating StokesII wave model for patch inlet
DILUPBiCGStab:  Solving for p_rgh, Initial residual = 0.000953378, Final residual = 9.4454e-06, No Iterations 11
time step continuity errors : sum local = 2.35812e-08, global = -2.14127e-08, cumulative = 9.40423e-08
DILUPBiCGStab:  Solving for p_rgh, Initial residual = 2.611e-05, Final residual = 2.37954e-07, No Iterations 32
time step continuity errors : sum local = 6.4009e-10, global = -1.14072e-10, cumulative = 9.39282e-08
DILUPBiCGStab:  Solving for p_rgh, Initial residual = 1.05476e-06, Final residual = 4.62675e-10, No Iterations 61
time step continuity errors : sum local = 1.24521e-12, global = 7.51095e-13, cumulative = 9.39289e-08
ExecutionTime = 24.56 s  ClockTime = 24 s

Courant Number mean: 0.000646747 max: 0.502665
Interface Courant Number mean: 2.3112e-06 max: 0.0145931
deltaT = 0.00210649
Time = 0.0226156

PIMPLE: iteration 1
forces forces:
    rho: rho
    Not including porosity effects

Restraint moorDynR2: MoorDyn module saved at t = 0.0205092 s
X[6]: (2.96277e-11 0 -0.0150369), (0 -1.3465e-09 0)
XD[6]: (2.30635e-08 0 -0.00346979), (0 -1.27201e-07 -0)
0.0226156: force (-3.78024e-08 0 -1.73648), moment (0 -9.3279e-10 0)
6-DoF rigid body motion
    Centre of rotation: (8.70568e-11 0 -0.0150445)
    Centre of mass: (8.70568e-11 0 -0.0150445)
    Orientation: (1 0 -1.62239e-09 0 1 0 1.62239e-09 0 1)
    Linear velocity: (3.14624e-08 0 -0.00378762)
    Angular velocity: (0 -1.34745e-07 -0)
inverseDistance : detected 2 mesh regions
    zone:0 nCells:80000  voxels:(284 1 284) bb:(-3.50001 -0.10001 -0.50001) (6.50001 0.10001 0.30001)
    zone:1 nCells:960  voxels:(284 1 284) bb:(-0.200001 -0.100001 -0.180045) (0.200001 0.100001 0.149956)
Overset analysis : nCells : 80960
    calculated   : 80420
    interpolated : 210 (from local:210  mixed local/remote:0  remote:0)
    hole         : 330

Updating StokesII wave model for patch inlet
Updating shallowWaterAbsorption wave model for patch outlet
Execution time for mesh.update() = 0.54 s
Updating StokesII wave model for patch inlet
smoothSolver:  Solving for alpha.water, Initial residual = 9.57984e-07, Final residual = 3.06101e-11, No Iterations 1
Phase-1 volume fraction = 0.623639  Min(alpha.water) = -8.04306e-18  Max(alpha.water) = 1
MULES: Correcting alpha.water
MULES: Correcting alpha.water
Phase-1 volume fraction = 0.623639  Min(alpha.water) = -4.79469e-12  Max(alpha.water) = 1
Updating StokesII wave model for patch inlet
smoothSolver:  Solving for alpha.water, Initial residual = 9.57454e-07, Final residual = 3.08825e-11, No Iterations 1
Phase-1 volume fraction = 0.623639  Min(alpha.water) = -7.31553e-19  Max(alpha.water) = 1
MULES: Correcting alpha.water
MULES: Correcting alpha.water
Phase-1 volume fraction = 0.623639  Min(alpha.water) = -4.18059e-12  Max(alpha.water) = 1
Updating StokesII wave model for patch inlet
DILUPBiCGStab:  Solving for p_rgh, Initial residual = 0.000987982, Final residual = 8.69106e-06, No Iterations 10
time step continuity errors : sum local = 2.15803e-08, global = -2.02902e-08, cumulative = 7.36387e-08
DILUPBiCGStab:  Solving for p_rgh, Initial residual = 2.33418e-05, Final residual = 9.0245e-08, No Iterations 44
time step continuity errors : sum local = 2.44403e-10, global = 1.16315e-10, cumulative = 7.3755e-08
DILUPBiCGStab:  Solving for p_rgh, Initial residual = 8.12853e-07, Final residual = 9.67223e-10, No Iterations 59
time step continuity errors : sum local = 2.51598e-12, global = -4.56931e-13, cumulative = 7.37546e-08
ExecutionTime = 25.56 s  ClockTime = 25 s

Courant Number mean: 0.000668259 max: 0.503455
Interface Courant Number mean: 2.51893e-06 max: 0.0149469
deltaT = 0.00210649
Time = 0.0247221

PIMPLE: iteration 1
forces forces:
    rho: rho
    Not including porosity effects

Restraint moorDynR2: MoorDyn module saved at t = 0.0226156 s
X[6]: (8.70568e-11 0 -0.0150445), (0 -1.62239e-09 0)
XD[6]: (3.14624e-08 0 -0.00378762), (0 -1.34745e-07 -0)
0.0247221: force (-5.6845e-08 0 -1.73524), moment (0 -1.73594e-09 0)
6-DoF rigid body motion
    Centre of rotation: (1.61908e-10 0 -0.0150528)
    Centre of mass: (1.61908e-10 0 -0.0150528)
    Orientation: (1 0 -1.91317e-09 0 1 0 1.91317e-09 0 1)
    Linear velocity: (3.96053e-08 0 -0.00412508)
    Angular velocity: (0 -1.41338e-07 -0)
inverseDistance : detected 2 mesh regions
    zone:0 nCells:80000  voxels:(284 1 284) bb:(-3.50001 -0.10001 -0.50001) (6.50001 0.10001 0.30001)
    zone:1 nCells:960  voxels:(284 1 284) bb:(-0.200001 -0.100001 -0.180053) (0.200001 0.100001 0.149948)
Overset analysis : nCells : 80960
    calculated   : 80420
    interpolated : 210 (from local:210  mixed local/remote:0  remote:0)
    hole         : 330

Updating StokesII wave model for patch inlet
Updating shallowWaterAbsorption wave model for patch outlet
Execution time for mesh.update() = 0.54 s
Updating StokesII wave model for patch inlet
smoothSolver:  Solving for alpha.water, Initial residual = 1.03732e-06, Final residual = 3.19771e-11, No Iterations 1
Phase-1 volume fraction = 0.623639  Min(alpha.water) = -1.05429e-19  Max(alpha.water) = 1
MULES: Correcting alpha.water
MULES: Correcting alpha.water
Phase-1 volume fraction = 0.623639  Min(alpha.water) = -1.26421e-12  Max(alpha.water) = 1
Updating StokesII wave model for patch inlet
smoothSolver:  Solving for alpha.water, Initial residual = 1.03678e-06, Final residual = 3.22834e-11, No Iterations 1
Phase-1 volume fraction = 0.623639  Min(alpha.water) = -1.21393e-19  Max(alpha.water) = 1
MULES: Correcting alpha.water
MULES: Correcting alpha.water
Phase-1 volume fraction = 0.623639  Min(alpha.water) = -3.61445e-15  Max(alpha.water) = 1
Updating StokesII wave model for patch inlet
DILUPBiCGStab:  Solving for p_rgh, Initial residual = 0.00103832, Final residual = 8.73819e-06, No Iterations 9
time step continuity errors : sum local = 2.1058e-08, global = -2.01737e-08, cumulative = 5.35809e-08
DILUPBiCGStab:  Solving for p_rgh, Initial residual = 2.14576e-05, Final residual = 2.13509e-07, No Iterations 29
time step continuity errors : sum local = 5.63711e-10, global = -5.21165e-10, cumulative = 5.30597e-08
DILUPBiCGStab:  Solving for p_rgh, Initial residual = 8.73412e-07, Final residual = 9.93669e-10, No Iterations 77
time step continuity errors : sum local = 2.58045e-12, global = 1.93409e-12, cumulative = 5.30616e-08
ExecutionTime = 26.56 s  ClockTime = 26 s

Courant Number mean: 0.00068779 max: 0.507053
Interface Courant Number mean: 2.76501e-06 max: 0.0152407
deltaT = 0.00210649
Time = 0.0268286

PIMPLE: iteration 1
forces forces:
    rho: rho
    Not including porosity effects

Restraint moorDynR2: MoorDyn module saved at t = 0.0247221 s
X[6]: (1.61908e-10 0 -0.0150528), (0 -1.91317e-09 0)
XD[6]: (3.96053e-08 0 -0.00412508), (0 -1.41338e-07 -0)
0.0268286: force (-7.58716e-08 0 -1.73394), moment (0 -2.44943e-09 0)
6-DoF rigid body motion
    Centre of rotation: (2.53588e-10 0 -0.0150619)
    Centre of mass: (2.53588e-10 0 -0.0150619)
    Orientation: (1 0 -2.21762e-09 0 1 0 2.21762e-09 0 1)
    Linear velocity: (4.744e-08 0 -0.00446463)
    Angular velocity: (0 -1.4772e-07 -0)
inverseDistance : detected 2 mesh regions
    zone:0 nCells:80000  voxels:(284 1 284) bb:(-3.50001 -0.10001 -0.50001) (6.50001 0.10001 0.30001)
    zone:1 nCells:960  voxels:(284 1 284) bb:(-0.200001 -0.100001 -0.180062) (0.200001 0.100001 0.149939)
Overset analysis : nCells : 80960
    calculated   : 80420
    interpolated : 210 (from local:210  mixed local/remote:0  remote:0)
    hole         : 330

Updating StokesII wave model for patch inlet
Updating shallowWaterAbsorption wave model for patch outlet
Execution time for mesh.update() = 0.56 s
Updating StokesII wave model for patch inlet
smoothSolver:  Solving for alpha.water, Initial residual = 1.11471e-06, Final residual = 3.30922e-11, No Iterations 1
Phase-1 volume fraction = 0.623639  Min(alpha.water) = -1.37055e-19  Max(alpha.water) = 1
MULES: Correcting alpha.water
MULES: Correcting alpha.water
Phase-1 volume fraction = 0.623639  Min(alpha.water) = -4.85269e-15  Max(alpha.water) = 1
Updating StokesII wave model for patch inlet
smoothSolver:  Solving for alpha.water, Initial residual = 1.11415e-06, Final residual = 3.34301e-11, No Iterations 1
Phase-1 volume fraction = 0.623639  Min(alpha.water) = -4.25344e-21  Max(alpha.water) = 1
MULES: Correcting alpha.water
MULES: Correcting alpha.water
Phase-1 volume fraction = 0.623639  Min(alpha.water) = -2.56535e-15  Max(alpha.water) = 1
Updating StokesII wave model for patch inlet
DILUPBiCGStab:  Solving for p_rgh, Initial residual = 0.00111999, Final residual = 9.66462e-06, No Iterations 6
time step continuity errors : sum local = 2.25316e-08, global = -2.05728e-08, cumulative = 3.24889e-08
DILUPBiCGStab:  Solving for p_rgh, Initial residual = 2.11765e-05, Final residual = 1.26916e-07, No Iterations 37
time step continuity errors : sum local = 3.29156e-10, global = 4.19658e-11, cumulative = 3.25308e-08
DILUPBiCGStab:  Solving for p_rgh, Initial residual = 7.47908e-07, Final residual = 6.21743e-10, No Iterations 60
time step continuity errors : sum local = 1.56334e-12, global = 9.76281e-13, cumulative = 3.25318e-08
ExecutionTime = 29.68 s  ClockTime = 29 s

Courant Number mean: 0.000705821 max: 0.509693
Interface Courant Number mean: 2.96137e-06 max: 0.015486
deltaT = 0.00210649
Time = 0.0289351

PIMPLE: iteration 1
forces forces:
    rho: rho
    Not including porosity effects

Restraint moorDynR2: MoorDyn module saved at t = 0.0268286 s
X[6]: (2.53588e-10 0 -0.0150619), (0 -2.21762e-09 0)
XD[6]: (4.744e-08 0 -0.00446463), (0 -1.4772e-07 -0)
0.0289351: force (-9.46121e-08 0 -1.73265), moment (0 -3.07015e-09 0)
6-DoF rigid body motion
    Centre of rotation: (3.61297e-10 0 -0.0150716)
    Centre of mass: (3.61297e-10 0 -0.0150716)
    Orientation: (1 0 -2.53559e-09 0 1 0 2.53559e-09 0 1)
    Linear velocity: (5.48236e-08 0 -0.00478758)
    Angular velocity: (0 -1.54173e-07 -0)
inverseDistance : detected 2 mesh regions
    zone:0 nCells:80000  voxels:(284 1 284) bb:(-3.50001 -0.10001 -0.50001) (6.50001 0.10001 0.30001)
    zone:1 nCells:960  voxels:(284 1 284) bb:(-0.200001 -0.100001 -0.180072) (0.200001 0.100001 0.149929)
Overset analysis : nCells : 80960
    calculated   : 80420
    interpolated : 210 (from local:210  mixed local/remote:0  remote:0)
    hole         : 330

Updating StokesII wave model for patch inlet
Updating shallowWaterAbsorption wave model for patch outlet
Execution time for mesh.update() = 0.55 s
Updating StokesII wave model for patch inlet
smoothSolver:  Solving for alpha.water, Initial residual = 1.18971e-06, Final residual = 3.39045e-11, No Iterations 1
Phase-1 volume fraction = 0.623639  Min(alpha.water) = -3.76387e-21  Max(alpha.water) = 1
MULES: Correcting alpha.water
MULES: Correcting alpha.water
Phase-1 volume fraction = 0.623639  Min(alpha.water) = -8.84212e-18  Max(alpha.water) = 1
Updating StokesII wave model for patch inlet
smoothSolver:  Solving for alpha.water, Initial residual = 1.18913e-06, Final residual = 3.42702e-11, No Iterations 1
Phase-1 volume fraction = 0.623639  Min(alpha.water) = -3.03625e-21  Max(alpha.water) = 1
MULES: Correcting alpha.water
MULES: Correcting alpha.water
Phase-1 volume fraction = 0.623639  Min(alpha.water) = -7.92735e-18  Max(alpha.water) = 1
Updating StokesII wave model for patch inlet
DILUPBiCGStab:  Solving for p_rgh, Initial residual = 0.00120607, Final residual = 1.15544e-05, No Iterations 3
time step continuity errors : sum local = 2.32415e-08, global = -1.93762e-08, cumulative = 1.31556e-08
DILUPBiCGStab:  Solving for p_rgh, Initial residual = 2.00136e-05, Final residual = 1.93362e-07, No Iterations 31
time step continuity errors : sum local = 4.817e-10, global = -3.52286e-10, cumulative = 1.28033e-08
DILUPBiCGStab:  Solving for p_rgh, Initial residual = 7.93122e-07, Final residual = 8.21208e-10, No Iterations 62
time step continuity errors : sum local = 2.0416e-12, global = -5.25431e-13, cumulative = 1.28028e-08
ExecutionTime = 30.66 s  ClockTime = 30 s

Courant Number mean: 0.00072257 max: 0.511233
Interface Courant Number mean: 3.19541e-06 max: 0.0156922
deltaT = 0.00210649
Time = 0.0310416

PIMPLE: iteration 1
forces forces:
    rho: rho
    Not including porosity effects

Restraint moorDynR2: MoorDyn module saved at t = 0.0289351 s
X[6]: (3.61297e-10 0 -0.0150716), (0 -2.53559e-09 0)
XD[6]: (5.48236e-08 0 -0.00478758), (0 -1.54173e-07 -0)
0.0310416: force (-1.12624e-07 0 -1.73145), moment (0 -3.5836e-09 0)
6-DoF rigid body motion
    Centre of rotation: (4.83933e-10 0 -0.0150821)
    Centre of mass: (4.83933e-10 0 -0.0150821)
    Orientation: (1 0 -2.86714e-09 0 1 0 2.86714e-09 0 1)
    Linear velocity: (6.16128e-08 0 -0.0051002)
    Angular velocity: (0 -1.60622e-07 0)
inverseDistance : detected 2 mesh regions
    zone:0 nCells:80000  voxels:(284 1 284) bb:(-3.50001 -0.10001 -0.50001) (6.50001 0.10001 0.30001)
    zone:1 nCells:960  voxels:(284 1 284) bb:(-0.200001 -0.100001 -0.180083) (0.200001 0.100001 0.149919)
Overset analysis : nCells : 80960
    calculated   : 80420
    interpolated : 210 (from local:210  mixed local/remote:0  remote:0)
    hole         : 330

Updating StokesII wave model for patch inlet
Updating shallowWaterAbsorption wave model for patch outlet
Execution time for mesh.update() = 0.55 s
Updating StokesII wave model for patch inlet
smoothSolver:  Solving for alpha.water, Initial residual = 1.2624e-06, Final residual = 3.43783e-11, No Iterations 1
Phase-1 volume fraction = 0.623639  Min(alpha.water) = -2.3723e-21  Max(alpha.water) = 1
MULES: Correcting alpha.water
MULES: Correcting alpha.water
Phase-1 volume fraction = 0.623639  Min(alpha.water) = -8.58322e-18  Max(alpha.water) = 1
Updating StokesII wave model for patch inlet
smoothSolver:  Solving for alpha.water, Initial residual = 1.2618e-06, Final residual = 3.47667e-11, No Iterations 1
Phase-1 volume fraction = 0.623639  Min(alpha.water) = -1.40672e-21  Max(alpha.water) = 1
MULES: Correcting alpha.water
MULES: Correcting alpha.water
Phase-1 volume fraction = 0.623639  Min(alpha.water) = -6.30476e-18  Max(alpha.water) = 1
Updating StokesII wave model for patch inlet
DILUPBiCGStab:  Solving for p_rgh, Initial residual = 0.00126807, Final residual = 1.12394e-05, No Iterations 3
time step continuity errors : sum local = 2.29088e-08, global = -1.56303e-08, cumulative = -2.82747e-09
DILUPBiCGStab:  Solving for p_rgh, Initial residual = 1.86909e-05, Final residual = 1.09069e-07, No Iterations 40
time step continuity errors : sum local = 2.65177e-10, global = 6.63429e-11, cumulative = -2.76113e-09
DILUPBiCGStab:  Solving for p_rgh, Initial residual = 6.87566e-07, Final residual = 8.82831e-10, No Iterations 52
time step continuity errors : sum local = 2.17132e-12, global = -1.49047e-13, cumulative = -2.76127e-09
ExecutionTime = 31.63 s  ClockTime = 31 s

Courant Number mean: 0.000738275 max: 0.511915
Interface Courant Number mean: 3.4016e-06 max: 0.0158664
deltaT = 0.00210649
Time = 0.0331481

PIMPLE: iteration 1
forces forces:
    rho: rho
    Not including porosity effects

Restraint moorDynR2: MoorDyn module saved at t = 0.0310416 s
X[6]: (4.83933e-10 0 -0.0150821), (0 -2.86714e-09 0)
XD[6]: (6.16128e-08 0 -0.0051002), (0 -1.60622e-07 0)
0.0331481: force (-1.2952e-07 0 -1.73029), moment (0 -3.98241e-09 0)
6-DoF rigid body motion
    Centre of rotation: (6.20127e-10 0 -0.0150931)
    Centre of mass: (6.20127e-10 0 -0.0150931)
    Orientation: (1 0 -3.21228e-09 0 1 0 3.21228e-09 0 1)
    Linear velocity: (6.76962e-08 0 -0.00541772)
    Angular velocity: (0 -1.6707e-07 0)
inverseDistance : detected 2 mesh regions
    zone:0 nCells:80000  voxels:(284 1 284) bb:(-3.50001 -0.10001 -0.50001) (6.50001 0.10001 0.30001)
    zone:1 nCells:960  voxels:(284 1 284) bb:(-0.200001 -0.100001 -0.180094) (0.200001 0.100001 0.149907)
Overset analysis : nCells : 80960
    calculated   : 80420
    interpolated : 210 (from local:210  mixed local/remote:0  remote:0)
    hole         : 330

Updating StokesII wave model for patch inlet
Updating shallowWaterAbsorption wave model for patch outlet
Execution time for mesh.update() = 0.56 s
Updating StokesII wave model for patch inlet
smoothSolver:  Solving for alpha.water, Initial residual = 1.33316e-06, Final residual = 3.45209e-11, No Iterations 1
Phase-1 volume fraction = 0.623638  Min(alpha.water) = -7.69295e-22  Max(alpha.water) = 1
MULES: Correcting alpha.water
MULES: Correcting alpha.water
Phase-1 volume fraction = 0.623638  Min(alpha.water) = -4.574e-18  Max(alpha.water) = 1
Updating StokesII wave model for patch inlet
smoothSolver:  Solving for alpha.water, Initial residual = 1.33254e-06, Final residual = 3.4927e-11, No Iterations 1
Phase-1 volume fraction = 0.623638  Min(alpha.water) = -7.58879e-22  Max(alpha.water) = 1
MULES: Correcting alpha.water
MULES: Correcting alpha.water
Phase-1 volume fraction = 0.623638  Min(alpha.water) = -7.45698e-19  Max(alpha.water) = 1
Updating StokesII wave model for patch inlet
DILUPBiCGStab:  Solving for p_rgh, Initial residual = 0.00131735, Final residual = 9.75781e-06, No Iterations 3
time step continuity errors : sum local = 2.02208e-08, global = -1.3177e-08, cumulative = -1.59383e-08
DILUPBiCGStab:  Solving for p_rgh, Initial residual = 1.62666e-05, Final residual = 1.51988e-07, No Iterations 33
time step continuity errors : sum local = 3.76672e-10, global = -3.67862e-10, cumulative = -1.63061e-08
DILUPBiCGStab:  Solving for p_rgh, Initial residual = 6.75585e-07, Final residual = 5.67832e-10, No Iterations 64
time step continuity errors : sum local = 1.38355e-12, global = 8.20604e-13, cumulative = -1.63053e-08
ExecutionTime = 32.61 s  ClockTime = 32 s

Courant Number mean: 0.000753213 max: 0.511918
Interface Courant Number mean: 3.58649e-06 max: 0.0160133
deltaT = 0.00210649
Time = 0.0352546

PIMPLE: iteration 1
forces forces:
    rho: rho
    Not including porosity effects

Restraint moorDynR2: MoorDyn module saved at t = 0.0331481 s
X[6]: (6.20127e-10 0 -0.0150931), (0 -3.21228e-09 0)
XD[6]: (6.76962e-08 0 -0.00541772), (0 -1.6707e-07 0)
0.0352546: force (-1.4497e-07 0 -1.72913), moment (0 -4.26366e-09 0)
6-DoF rigid body motion
    Centre of rotation: (7.68312e-10 0 -0.0151049)
    Centre of mass: (7.68312e-10 0 -0.0151049)
    Orientation: (1 0 -3.5711e-09 0 1 0 3.5711e-09 0 1)
    Linear velocity: (7.29976e-08 0 -0.00574091)
    Angular velocity: (0 -1.73614e-07 0)
inverseDistance : detected 2 mesh regions
    zone:0 nCells:80000  voxels:(284 1 284) bb:(-3.50001 -0.10001 -0.50001) (6.50001 0.10001 0.30001)
    zone:1 nCells:960  voxels:(284 1 284) bb:(-0.200001 -0.100001 -0.180105) (0.200001 0.100001 0.149896)
Overset analysis : nCells : 80960
    calculated   : 80420
    interpolated : 210 (from local:210  mixed local/remote:0  remote:0)
    hole         : 330

Updating StokesII wave model for patch inlet
Updating shallowWaterAbsorption wave model for patch outlet
Execution time for mesh.update() = 0.56 s
Updating StokesII wave model for patch inlet
smoothSolver:  Solving for alpha.water, Initial residual = 1.40209e-06, Final residual = 3.4336e-11, No Iterations 1
Phase-1 volume fraction = 0.623638  Min(alpha.water) = -5.88694e-22  Max(alpha.water) = 1
MULES: Correcting alpha.water
MULES: Correcting alpha.water
Phase-1 volume fraction = 0.623638  Min(alpha.water) = -1.46167e-20  Max(alpha.water) = 1
Updating StokesII wave model for patch inlet
smoothSolver:  Solving for alpha.water, Initial residual = 1.40145e-06, Final residual = 3.47545e-11, No Iterations 1
Phase-1 volume fraction = 0.623638  Min(alpha.water) = -5.32324e-22  Max(alpha.water) = 1
MULES: Correcting alpha.water
MULES: Correcting alpha.water
Phase-1 volume fraction = 0.623638  Min(alpha.water) = -7.4245e-21  Max(alpha.water) = 1
Updating StokesII wave model for patch inlet
DILUPBiCGStab:  Solving for p_rgh, Initial residual = 0.00138168, Final residual = 9.19078e-06, No Iterations 3
time step continuity errors : sum local = 1.92598e-08, global = -1.10962e-08, cumulative = -2.74015e-08
DILUPBiCGStab:  Solving for p_rgh, Initial residual = 1.51477e-05, Final residual = 1.38909e-07, No Iterations 34
time step continuity errors : sum local = 3.345e-10, global = -2.83533e-10, cumulative = -2.76851e-08
DILUPBiCGStab:  Solving for p_rgh, Initial residual = 6.02395e-07, Final residual = 7.90158e-10, No Iterations 68
time step continuity errors : sum local = 1.87279e-12, global = 1.80401e-12, cumulative = -2.76833e-08
ExecutionTime = 33.61 s  ClockTime = 33 s

Courant Number mean: 0.000767475 max: 0.511382
Interface Courant Number mean: 3.81608e-06 max: 0.0161369
deltaT = 0.00210649
Time = 0.0373611

PIMPLE: iteration 1
forces forces:
    rho: rho
    Not including porosity effects

Restraint moorDynR2: MoorDyn module saved at t = 0.0352546 s
X[6]: (7.68312e-10 0 -0.0151049), (0 -3.5711e-09 0)
XD[6]: (7.29976e-08 0 -0.00574091), (0 -1.73614e-07 0)
0.0373611: force (-1.587e-07 0 -1.72797), moment (0 -4.42765e-09 0)
6-DoF rigid body motion
    Centre of rotation: (9.2679e-10 0 -0.0151173)
    Centre of mass: (9.2679e-10 0 -0.0151173)
    Orientation: (1 0 -3.94397e-09 0 1 0 3.94397e-09 0 1)
    Linear velocity: (7.74691e-08 0 -0.00605901)
    Angular velocity: (0 -1.80401e-07 0)
inverseDistance : detected 2 mesh regions
    zone:0 nCells:80000  voxels:(284 1 284) bb:(-3.50001 -0.10001 -0.50001) (6.50001 0.10001 0.30001)
    zone:1 nCells:960  voxels:(284 1 284) bb:(-0.200001 -0.100001 -0.180118) (0.200001 0.100001 0.149883)
Overset analysis : nCells : 80960
    calculated   : 80420
    interpolated : 210 (from local:210  mixed local/remote:0  remote:0)
    hole         : 330

Updating StokesII wave model for patch inlet
Updating shallowWaterAbsorption wave model for patch outlet
Execution time for mesh.update() = 0.55 s
Updating StokesII wave model for patch inlet
smoothSolver:  Solving for alpha.water, Initial residual = 1.46899e-06, Final residual = 3.37906e-11, No Iterations 1
Phase-1 volume fraction = 0.623638  Min(alpha.water) = -4.89832e-22  Max(alpha.water) = 1
MULES: Correcting alpha.water
MULES: Correcting alpha.water
Phase-1 volume fraction = 0.623638  Min(alpha.water) = -4.74956e-20  Max(alpha.water) = 1
Updating StokesII wave model for patch inlet
smoothSolver:  Solving for alpha.water, Initial residual = 1.46834e-06, Final residual = 3.42159e-11, No Iterations 1
Phase-1 volume fraction = 0.623638  Min(alpha.water) = -4.39528e-22  Max(alpha.water) = 1
MULES: Correcting alpha.water
MULES: Correcting alpha.water
Phase-1 volume fraction = 0.623638  Min(alpha.water) = -4.23819e-20  Max(alpha.water) = 1
Updating StokesII wave model for patch inlet
DILUPBiCGStab:  Solving for p_rgh, Initial residual = 0.00145961, Final residual = 1.30211e-05, No Iterations 2
time step continuity errors : sum local = 3.0513e-08, global = -1.27401e-08, cumulative = -4.04233e-08
DILUPBiCGStab:  Solving for p_rgh, Initial residual = 1.73563e-05, Final residual = 1.44124e-07, No Iterations 31
time step continuity errors : sum local = 3.39722e-10, global = -2.78055e-10, cumulative = -4.07014e-08
DILUPBiCGStab:  Solving for p_rgh, Initial residual = 6.48908e-07, Final residual = 9.72078e-10, No Iterations 82
time step continuity errors : sum local = 2.27085e-12, global = -2.24042e-12, cumulative = -4.07036e-08
ExecutionTime = 36.77 s  ClockTime = 36 s

Courant Number mean: 0.000781235 max: 0.510422
Interface Courant Number mean: 4.01022e-06 max: 0.0162415
deltaT = 0.00210649
Time = 0.0394676

PIMPLE: iteration 1
forces forces:
    rho: rho
    Not including porosity effects

Restraint moorDynR2: MoorDyn module saved at t = 0.0373611 s
X[6]: (9.2679e-10 0 -0.0151173), (0 -3.94397e-09 0)
XD[6]: (7.74691e-08 0 -0.00605901), (0 -1.80401e-07 0)
0.0394676: force (-1.70498e-07 0 -1.72684), moment (0 -4.47668e-09 0)
6-DoF rigid body motion
    Centre of rotation: (1.09378e-09 0 -0.0151304)
    Centre of mass: (1.09378e-09 0 -0.0151304)
    Orientation: (1 0 -4.33159e-09 0 1 0 4.33159e-09 0 1)
    Linear velocity: (8.10814e-08 0 -0.00636761)
    Angular velocity: (0 -1.87628e-07 0)
inverseDistance : detected 2 mesh regions
    zone:0 nCells:80000  voxels:(284 1 284) bb:(-3.50001 -0.10001 -0.50001) (6.50001 0.10001 0.30001)
    zone:1 nCells:960  voxels:(284 1 284) bb:(-0.200001 -0.100001 -0.180131) (0.200001 0.100001 0.14987)
Overset analysis : nCells : 80960
    calculated   : 80420
    interpolated : 210 (from local:210  mixed local/remote:0  remote:0)
    hole         : 330

Updating StokesII wave model for patch inlet
Updating shallowWaterAbsorption wave model for patch outlet
Execution time for mesh.update() = 0.55 s
Updating StokesII wave model for patch inlet
smoothSolver:  Solving for alpha.water, Initial residual = 1.53376e-06, Final residual = 3.28347e-11, No Iterations 1
Phase-1 volume fraction = 0.623638  Min(alpha.water) = -4.00649e-22  Max(alpha.water) = 1
MULES: Correcting alpha.water
MULES: Correcting alpha.water
Phase-1 volume fraction = 0.623638  Min(alpha.water) = -1.64268e-19  Max(alpha.water) = 1
Updating StokesII wave model for patch inlet
smoothSolver:  Solving for alpha.water, Initial residual = 1.53308e-06, Final residual = 3.326e-11, No Iterations 1
Phase-1 volume fraction = 0.623638  Min(alpha.water) = -3.55007e-22  Max(alpha.water) = 1
MULES: Correcting alpha.water
MULES: Correcting alpha.water
Phase-1 volume fraction = 0.623638  Min(alpha.water) = -1.59884e-19  Max(alpha.water) = 1
Updating StokesII wave model for patch inlet
DILUPBiCGStab:  Solving for p_rgh, Initial residual = 0.00152723, Final residual = 1.29779e-05, No Iterations 2
time step continuity errors : sum local = 2.98284e-08, global = -1.11601e-08, cumulative = -5.18637e-08
DILUPBiCGStab:  Solving for p_rgh, Initial residual = 1.71135e-05, Final residual = 1.68015e-07, No Iterations 35
time step continuity errors : sum local = 3.91908e-10, global = -2.39105e-10, cumulative = -5.21028e-08
DILUPBiCGStab:  Solving for p_rgh, Initial residual = 6.36901e-07, Final residual = 9.54583e-10, No Iterations 54
time step continuity errors : sum local = 2.21432e-12, global = -1.20396e-13, cumulative = -5.21029e-08
ExecutionTime = 37.73 s  ClockTime = 37 s

Courant Number mean: 0.000794593 max: 0.509136
Interface Courant Number mean: 4.21536e-06 max: 0.0163309
deltaT = 0.00210649
Time = 0.041574

PIMPLE: iteration 1
forces forces:
    rho: rho
    Not including porosity effects

Restraint moorDynR2: MoorDyn module saved at t = 0.0394676 s
X[6]: (1.09378e-09 0 -0.0151304), (0 -4.33159e-09 0)
XD[6]: (8.10814e-08 0 -0.00636761), (0 -1.87628e-07 0)
0.041574: force (-1.80188e-07 0 -1.72578), moment (0 -4.41296e-09 0)
6-DoF rigid body motion
    Centre of rotation: (1.26746e-09 0 -0.0151441)
    Centre of mass: (1.26746e-09 0 -0.0151441)
    Orientation: (1 0 -4.73499e-09 0 1 0 4.73499e-09 0 1)
    Linear velocity: (8.38201e-08 0 -0.00667273)
    Angular velocity: (0 -1.95374e-07 0)
inverseDistance : detected 2 mesh regions
    zone:0 nCells:80000  voxels:(284 1 284) bb:(-3.50001 -0.10001 -0.50001) (6.50001 0.10001 0.30001)
    zone:1 nCells:960  voxels:(284 1 284) bb:(-0.200001 -0.100001 -0.180145) (0.200001 0.100001 0.149856)
Overset analysis : nCells : 80960
    calculated   : 80420
    interpolated : 210 (from local:210  mixed local/remote:0  remote:0)
    hole         : 330

Updating StokesII wave model for patch inlet
Updating shallowWaterAbsorption wave model for patch outlet
Execution time for mesh.update() = 0.55 s
Updating StokesII wave model for patch inlet
smoothSolver:  Solving for alpha.water, Initial residual = 1.59651e-06, Final residual = 3.14245e-11, No Iterations 1
Phase-1 volume fraction = 0.623638  Min(alpha.water) = -3.2603e-22  Max(alpha.water) = 1
MULES: Correcting alpha.water
MULES: Correcting alpha.water
Phase-1 volume fraction = 0.623638  Min(alpha.water) = -3.82306e-19  Max(alpha.water) = 1
Updating StokesII wave model for patch inlet
smoothSolver:  Solving for alpha.water, Initial residual = 1.5958e-06, Final residual = 3.18424e-11, No Iterations 1
Phase-1 volume fraction = 0.623638  Min(alpha.water) = -2.9289e-22  Max(alpha.water) = 1
MULES: Correcting alpha.water
MULES: Correcting alpha.water
Phase-1 volume fraction = 0.623638  Min(alpha.water) = -3.97731e-19  Max(alpha.water) = 1
Updating StokesII wave model for patch inlet
DILUPBiCGStab:  Solving for p_rgh, Initial residual = 0.00157649, Final residual = 1.30252e-05, No Iterations 2
time step continuity errors : sum local = 2.95645e-08, global = -9.61573e-09, cumulative = -6.17186e-08
DILUPBiCGStab:  Solving for p_rgh, Initial residual = 1.68502e-05, Final residual = 1.64165e-07, No Iterations 29
time step continuity errors : sum local = 3.76943e-10, global = -2.10908e-10, cumulative = -6.19296e-08
DILUPBiCGStab:  Solving for p_rgh, Initial residual = 6.01444e-07, Final residual = 7.04948e-10, No Iterations 59
time step continuity errors : sum local = 1.61638e-12, global = 7.50193e-14, cumulative = -6.19295e-08
ExecutionTime = 38.68 s  ClockTime = 38 s

Courant Number mean: 0.000807736 max: 0.507603
Interface Courant Number mean: 4.40262e-06 max: 0.0164083
deltaT = 0.00210649
Time = 0.0436805

PIMPLE: iteration 1
forces forces:
    rho: rho
    Not including porosity effects

Restraint moorDynR2: MoorDyn module saved at t = 0.041574 s
X[6]: (1.26746e-09 0 -0.0151441), (0 -4.73499e-09 0)
XD[6]: (8.38201e-08 0 -0.00667273), (0 -1.95374e-07 0)
0.0436805: force (-1.87664e-07 0 -1.72473), moment (0 -4.24098e-09 0)
6-DoF rigid body motion
    Centre of rotation: (1.44599e-09 0 -0.0151585)
    Centre of mass: (1.44599e-09 0 -0.0151585)
    Orientation: (1 0 -5.15521e-09 0 1 0 5.15521e-09 0 1)
    Linear velocity: (8.56838e-08 0 -0.00697948)
    Angular velocity: (0 -2.03604e-07 0)
inverseDistance : detected 2 mesh regions
    zone:0 nCells:80000  voxels:(284 1 284) bb:(-3.50001 -0.10001 -0.50001) (6.50001 0.10001 0.30001)
    zone:1 nCells:960  voxels:(284 1 284) bb:(-0.200001 -0.100001 -0.180159) (0.200001 0.100001 0.149842)
Overset analysis : nCells : 80960
    calculated   : 80420
    interpolated : 210 (from local:210  mixed local/remote:0  remote:0)
    hole         : 330

Updating StokesII wave model for patch inlet
Updating shallowWaterAbsorption wave model for patch outlet
Execution time for mesh.update() = 0.56 s
Updating StokesII wave model for patch inlet
smoothSolver:  Solving for alpha.water, Initial residual = 1.6574e-06, Final residual = 2.95252e-11, No Iterations 1
Phase-1 volume fraction = 0.623638  Min(alpha.water) = -2.82884e-22  Max(alpha.water) = 1
MULES: Correcting alpha.water
MULES: Correcting alpha.water
Phase-1 volume fraction = 0.623638  Min(alpha.water) = -7.7915e-19  Max(alpha.water) = 1
Updating StokesII wave model for patch inlet
smoothSolver:  Solving for alpha.water, Initial residual = 1.65667e-06, Final residual = 2.99279e-11, No Iterations 1
Phase-1 volume fraction = 0.623638  Min(alpha.water) = -2.73216e-22  Max(alpha.water) = 1
MULES: Correcting alpha.water
MULES: Correcting alpha.water
Phase-1 volume fraction = 0.623638  Min(alpha.water) = -8.08864e-19  Max(alpha.water) = 1
Updating StokesII wave model for patch inlet
DILUPBiCGStab:  Solving for p_rgh, Initial residual = 0.00162302, Final residual = 1.31881e-05, No Iterations 2
time step continuity errors : sum local = 2.95157e-08, global = -8.083e-09, cumulative = -7.00125e-08
DILUPBiCGStab:  Solving for p_rgh, Initial residual = 1.66684e-05, Final residual = 1.66565e-07, No Iterations 32
time step continuity errors : sum local = 3.71282e-10, global = 1.74861e-10, cumulative = -6.98376e-08
DILUPBiCGStab:  Solving for p_rgh, Initial residual = 5.76255e-07, Final residual = 3.17882e-10, No Iterations 73
time step continuity errors : sum local = 7.20626e-13, global = 5.43734e-13, cumulative = -6.98371e-08
ExecutionTime = 39.69 s  ClockTime = 39 s

Courant Number mean: 0.000820786 max: 0.505866
Interface Courant Number mean: 4.57438e-06 max: 0.0164765
deltaT = 0.00210649
Time = 0.045787

PIMPLE: iteration 1
forces forces:
    rho: rho
    Not including porosity effects

Restraint moorDynR2: MoorDyn module saved at t = 0.0436805 s
X[6]: (1.44599e-09 0 -0.0151585), (0 -5.15521e-09 0)
XD[6]: (8.56838e-08 0 -0.00697948), (0 -2.03604e-07 0)
0.045787: force (-1.92877e-07 0 -1.7237), moment (0 -3.96691e-09 0)
6-DoF rigid body motion
    Centre of rotation: (1.62753e-09 0 -0.0151735)
    Centre of mass: (1.62753e-09 0 -0.0151735)
    Orientation: (1 0 -5.59328e-09 0 1 0 5.59328e-09 0 1)
    Linear velocity: (8.66792e-08 0 -0.00728522)
    Angular velocity: (0 -2.12317e-07 0)
inverseDistance : detected 2 mesh regions
    zone:0 nCells:80000  voxels:(284 1 284) bb:(-3.50001 -0.10001 -0.50001) (6.50001 0.10001 0.30001)
    zone:1 nCells:960  voxels:(284 1 284) bb:(-0.200001 -0.100001 -0.180174) (0.200001 0.100001 0.149827)
Overset analysis : nCells : 80960
    calculated   : 80420
    interpolated : 210 (from local:210  mixed local/remote:0  remote:0)
    hole         : 330

Updating StokesII wave model for patch inlet
Updating shallowWaterAbsorption wave model for patch outlet
Execution time for mesh.update() = 0.58 s
Updating StokesII wave model for patch inlet
smoothSolver:  Solving for alpha.water, Initial residual = 1.71643e-06, Final residual = 2.70492e-11, No Iterations 1
Phase-1 volume fraction = 0.623638  Min(alpha.water) = -2.63794e-22  Max(alpha.water) = 1
MULES: Correcting alpha.water
MULES: Correcting alpha.water
Phase-1 volume fraction = 0.623638  Min(alpha.water) = -1.39434e-18  Max(alpha.water) = 1
Updating StokesII wave model for patch inlet
smoothSolver:  Solving for alpha.water, Initial residual = 1.71567e-06, Final residual = 2.74276e-11, No Iterations 1
Phase-1 volume fraction = 0.623638  Min(alpha.water) = -2.54691e-22  Max(alpha.water) = 1
MULES: Correcting alpha.water
MULES: Correcting alpha.water
Phase-1 volume fraction = 0.623638  Min(alpha.water) = -1.45932e-18  Max(alpha.water) = 1
Updating StokesII wave model for patch inlet
DILUPBiCGStab:  Solving for p_rgh, Initial residual = 0.00167927, Final residual = 1.36862e-05, No Iterations 2
time step continuity errors : sum local = 3.00536e-08, global = -6.54315e-09, cumulative = -7.63802e-08
DILUPBiCGStab:  Solving for p_rgh, Initial residual = 1.67772e-05, Final residual = 1.62133e-07, No Iterations 21
time step continuity errors : sum local = 3.61465e-10, global = -2.30494e-10, cumulative = -7.66107e-08
DILUPBiCGStab:  Solving for p_rgh, Initial residual = 5.70765e-07, Final residual = 7.49343e-10, No Iterations 63
time step continuity errors : sum local = 1.68367e-12, global = 6.73401e-13, cumulative = -7.661e-08
ExecutionTime = 40.69 s  ClockTime = 40 s

Courant Number mean: 0.000833737 max: 0.503966
Interface Courant Number mean: 4.77827e-06 max: 0.0165387
deltaT = 0.00210649
Time = 0.0478935

PIMPLE: iteration 1
forces forces:
    rho: rho
    Not including porosity effects

Restraint moorDynR2: MoorDyn module saved at t = 0.045787 s
X[6]: (1.62753e-09 0 -0.0151735), (0 -5.59328e-09 0)
XD[6]: (8.66792e-08 0 -0.00728522), (0 -2.12317e-07 0)
0.0478935: force (-1.95802e-07 0 -1.72269), moment (0 -3.59492e-09 0)
6-DoF rigid body motion
    Centre of rotation: (1.81025e-09 0 -0.0151892)
    Centre of mass: (1.81025e-09 0 -0.0151892)
    Orientation: (1 0 -6.05041e-09 0 1 0 6.05041e-09 0 1)
    Linear velocity: (8.68039e-08 0 -0.00758526)
    Angular velocity: (0 -2.21705e-07 -0)
inverseDistance : detected 2 mesh regions
    zone:0 nCells:80000  voxels:(284 1 284) bb:(-3.50001 -0.10001 -0.50001) (6.50001 0.10001 0.30001)
    zone:1 nCells:960  voxels:(284 1 284) bb:(-0.200001 -0.100001 -0.18019) (0.200001 0.100001 0.149811)
Overset analysis : nCells : 80960
    calculated   : 80420
    interpolated : 210 (from local:210  mixed local/remote:0  remote:0)
    hole         : 330

Updating StokesII wave model for patch inlet
Updating shallowWaterAbsorption wave model for patch outlet
Execution time for mesh.update() = 0.57 s
Updating StokesII wave model for patch inlet
smoothSolver:  Solving for alpha.water, Initial residual = 1.77349e-06, Final residual = 2.3865e-11, No Iterations 1
Phase-1 volume fraction = 0.623638  Min(alpha.water) = -2.45823e-22  Max(alpha.water) = 1
MULES: Correcting alpha.water
MULES: Correcting alpha.water
Phase-1 volume fraction = 0.623638  Min(alpha.water) = -2.3336e-18  Max(alpha.water) = 1
Updating StokesII wave model for patch inlet
smoothSolver:  Solving for alpha.water, Initial residual = 1.77271e-06, Final residual = 2.4208e-11, No Iterations 1
Phase-1 volume fraction = 0.623637  Min(alpha.water) = -2.37256e-22  Max(alpha.water) = 1
MULES: Correcting alpha.water
MULES: Correcting alpha.water
Phase-1 volume fraction = 0.623637  Min(alpha.water) = -2.41017e-18  Max(alpha.water) = 1
Updating StokesII wave model for patch inlet
DILUPBiCGStab:  Solving for p_rgh, Initial residual = 0.00173539, Final residual = 1.4159e-05, No Iterations 2
time step continuity errors : sum local = 3.04943e-08, global = -4.94447e-09, cumulative = -8.15545e-08
DILUPBiCGStab:  Solving for p_rgh, Initial residual = 1.71111e-05, Final residual = 1.5399e-07, No Iterations 22
time step continuity errors : sum local = 3.49853e-10, global = -1.53645e-10, cumulative = -8.17082e-08
DILUPBiCGStab:  Solving for p_rgh, Initial residual = 5.62772e-07, Final residual = 9.01703e-10, No Iterations 53
time step continuity errors : sum local = 2.025e-12, global = -1.01073e-12, cumulative = -8.17092e-08
ExecutionTime = 43.78 s  ClockTime = 43 s

Courant Number mean: 0.000846777 max: 0.501961
Interface Courant Number mean: 4.94505e-06 max: 0.0165983
deltaT = 0.00210649
Time = 0.05

PIMPLE: iteration 1
forces forces:
    rho: rho
    Not including porosity effects

Restraint moorDynR2: MoorDyn module saved at t = 0.0478935 s
X[6]: (1.81025e-09 0 -0.0151892), (0 -6.05041e-09 0)
XD[6]: (8.68039e-08 0 -0.00758526), (0 -2.21705e-07 -0)
0.05: force (-1.96366e-07 0 -1.72173), moment (0 -3.12185e-09 0)
6-DoF rigid body motion
    Centre of rotation: (1.99233e-09 0 -0.0152055)
    Centre of mass: (1.99233e-09 0 -0.0152055)
    Orientation: (1 0 -6.52809e-09 0 1 0 6.52809e-09 0 1)
    Linear velocity: (8.60648e-08 0 -0.00787973)
    Angular velocity: (0 -2.31825e-07 -0)
inverseDistance : detected 2 mesh regions
[...]
DILUPBiCGStab:  Solving for p_rgh, Initial residual = 6.30883e-07, Final residual = 7.4437e-10, No Iterations 65
time step continuity errors : sum local = 4.52215e-12, global = 4.51018e-12, cumulative = 8.28347e-08
ExecutionTime = 116.42 s  ClockTime = 113 s

Courant Number mean: 0.00171023 max: 0.459567
Interface Courant Number mean: 1.93478e-05 max: 0.0343565
deltaT = 0.00308666
Time = 0.18148

PIMPLE: iteration 1
forces forces:
    rho: rho
    Not including porosity effects

Restraint moorDynR2: MoorDyn module saved at t = 0.178393 s
X[6]: (-3.36008e-09 0 -0.0170263), (0 -1.18533e-07 0)
XD[6]: (-2.27848e-07 0 -0.0172771), (0 -1.86331e-06 0)
0.18148: force (5.08519e-07 0 -1.70622), moment (0 6.42483e-08 0)
6-DoF rigid body motion
    Centre of rotation: (-4.07156e-09 0 -0.0170796)
    Centre of mass: (-4.07156e-09 0 -0.0170796)
    Orientation: (1 0 -1.24407e-07 0 1 0 1.24407e-07 0 1)
    Linear velocity: (-2.3315e-07 0 -0.017253)
    Angular velocity: (0 -1.94269e-06 0)
inverseDistance : detected 2 mesh regions
    zone:0 nCells:80000  voxels:(284 1 284) bb:(-3.50001 -0.10001 -0.50001) (6.50001 0.10001 0.30001)
    zone:1 nCells:960  voxels:(284 1 284) bb:(-0.200001 -0.100001 -0.18208) (0.200001 0.100001 0.147921)
Overset analysis : nCells : 80960
    calculated   : 80444
    interpolated : 208 (from local:208  mixed local/remote:0  remote:0)
    hole         : 308

Updating StokesII wave model for patch inlet
Updating shallowWaterAbsorption wave model for patch outlet
Execution time for mesh.update() = 0.56 s
Updating StokesII wave model for patch inlet
smoothSolver:  Solving for alpha.water, Initial residual = 5.09095e-06, Final residual = 6.29635e-11, No Iterations 1
Phase-1 volume fraction = 0.623627  Min(alpha.water) = -1.19824e-24  Max(alpha.water) = 1
MULES: Correcting alpha.water
MULES: Correcting alpha.water
Phase-1 volume fraction = 0.623627  Min(alpha.water) = -5.14494e-14  Max(alpha.water) = 1
Updating StokesII wave model for patch inlet
smoothSolver:  Solving for alpha.water, Initial residual = 5.088e-06, Final residual = 6.32859e-11, No Iterations 1
Phase-1 volume fraction = 0.623626  Min(alpha.water) = -1.05851e-24  Max(alpha.water) = 1
MULES: Correcting alpha.water
MULES: Correcting alpha.water
Phase-1 volume fraction = 0.623626  Min(alpha.water) = -6.41316e-14  Max(alpha.water) = 1
Updating StokesII wave model for patch inlet
DILUPBiCGStab:  Solving for p_rgh, Initial residual = 0.00152651, Final residual = 9.64425e-06, No Iterations 13
time step continuity errors : sum local = 7.22343e-08, global = -6.26532e-08, cumulative = 2.01815e-08
DILUPBiCGStab:  Solving for p_rgh, Initial residual = 2.683e-05, Final residual = 2.49815e-07, No Iterations 22
time step continuity errors : sum local = 1.993e-09, global = -8.15788e-10, cumulative = 1.93658e-08
DILUPBiCGStab:  Solving for p_rgh, Initial residual = 9.45515e-07, Final residual = 9.94549e-10, No Iterations 50
time step continuity errors : sum local = 7.885e-12, global = -1.57926e-12, cumulative = 1.93642e-08
ExecutionTime = 117.36 s  ClockTime = 114 s

Courant Number mean: 0.00194276 max: 0.48228
Interface Courant Number mean: 2.20822e-05 max: 0.0426768
deltaT = 0.00308666
Time = 0.184567

PIMPLE: iteration 1
forces forces:
    rho: rho
    Not including porosity effects

Restraint moorDynR2: MoorDyn module saved at t = 0.18148 s
X[6]: (-4.07156e-09 0 -0.0170796), (0 -1.24407e-07 0)
XD[6]: (-2.3315e-07 0 -0.017253), (0 -1.94269e-06 0)
0.184567: force (5.41727e-07 0 -1.70691), moment (0 6.71188e-08 0)
6-DoF rigid body motion
    Centre of rotation: (-4.79685e-09 0 -0.0171328)
    Centre of mass: (-4.79685e-09 0 -0.0171328)
    Orientation: (1 0 -1.30522e-07 0 1 0 1.30522e-07 0 1)
    Linear velocity: (-2.36803e-07 0 -0.0172194)
    Angular velocity: (0 -2.01975e-06 0)
inverseDistance : detected 2 mesh regions
    zone:0 nCells:80000  voxels:(284 1 284) bb:(-3.50001 -0.10001 -0.50001) (6.50001 0.10001 0.30001)
    zone:1 nCells:960  voxels:(284 1 284) bb:(-0.200001 -0.100001 -0.182133) (0.200001 0.100001 0.147868)
Overset analysis : nCells : 80960
    calculated   : 80444
    interpolated : 208 (from local:208  mixed local/remote:0  remote:0)
    hole         : 308

Updating StokesII wave model for patch inlet
Updating shallowWaterAbsorption wave model for patch outlet
Execution time for mesh.update() = 0.56 s
Updating StokesII wave model for patch inlet
smoothSolver:  Solving for alpha.water, Initial residual = 5.11141e-06, Final residual = 6.1278e-11, No Iterations 1
Phase-1 volume fraction = 0.623626  Min(alpha.water) = -2.64976e-24  Max(alpha.water) = 1
MULES: Correcting alpha.water
MULES: Correcting alpha.water
Phase-1 volume fraction = 0.623626  Min(alpha.water) = -4.99506e-15  Max(alpha.water) = 1
Updating StokesII wave model for patch inlet
smoothSolver:  Solving for alpha.water, Initial residual = 5.1086e-06, Final residual = 6.15739e-11, No Iterations 1
Phase-1 volume fraction = 0.623625  Min(alpha.water) = -8.07906e-25  Max(alpha.water) = 1
MULES: Correcting alpha.water
MULES: Correcting alpha.water
Phase-1 volume fraction = 0.623625  Min(alpha.water) = -5.68491e-15  Max(alpha.water) = 1
Updating StokesII wave model for patch inlet
DILUPBiCGStab:  Solving for p_rgh, Initial residual = 0.00148651, Final residual = 1.46553e-05, No Iterations 7
time step continuity errors : sum local = 1.06193e-07, global = 8.62587e-08, cumulative = 1.05623e-07
DILUPBiCGStab:  Solving for p_rgh, Initial residual = 2.87285e-05, Final residual = 2.7932e-07, No Iterations 26
time step continuity errors : sum local = 2.2607e-09, global = 2.1262e-09, cumulative = 1.07749e-07
DILUPBiCGStab:  Solving for p_rgh, Initial residual = 1.05434e-06, Final residual = 9.60002e-10, No Iterations 56
time step continuity errors : sum local = 7.8252e-12, global = 2.19976e-12, cumulative = 1.07751e-07
ExecutionTime = 118.34 s  ClockTime = 115 s

Courant Number mean: 0.00193876 max: 0.450387
Interface Courant Number mean: 2.2003e-05 max: 0.0456135
deltaT = 0.00308666
Time = 0.187653

PIMPLE: iteration 1
forces forces:
    rho: rho
    Not including porosity effects

Restraint moorDynR2: MoorDyn module saved at t = 0.184567 s
X[6]: (-4.79685e-09 0 -0.0171328), (0 -1.30522e-07 0)
XD[6]: (-2.36803e-07 0 -0.0172194), (0 -2.01975e-06 0)
0.187653: force (5.74253e-07 0 -1.70774), moment (0 7.04009e-08 0)
6-DoF rigid body motion
    Centre of rotation: (-5.5455e-09 0 -0.0171859)
    Centre of mass: (-5.5455e-09 0 -0.0171859)
    Orientation: (1 0 -1.36866e-07 0 1 0 1.36866e-07 0 1)
    Linear velocity: (-2.48286e-07 0 -0.0171741)
    Angular velocity: (0 -2.09032e-06 0)
inverseDistance : detected 2 mesh regions
    zone:0 nCells:80000  voxels:(284 1 284) bb:(-3.50001 -0.10001 -0.50001) (6.50001 0.10001 0.30001)
    zone:1 nCells:960  voxels:(284 1 284) bb:(-0.200001 -0.100001 -0.182186) (0.200001 0.100001 0.147815)
Overset analysis : nCells : 80960
    calculated   : 80444
    interpolated : 208 (from local:208  mixed local/remote:0  remote:0)
    hole         : 308

Updating StokesII wave model for patch inlet
Updating shallowWaterAbsorption wave model for patch outlet
Execution time for mesh.update() = 0.55 s
Updating StokesII wave model for patch inlet
smoothSolver:  Solving for alpha.water, Initial residual = 5.12828e-06, Final residual = 5.94029e-11, No Iterations 1
Phase-1 volume fraction = 0.623625  Min(alpha.water) = -6.91166e-25  Max(alpha.water) = 1
MULES: Correcting alpha.water
MULES: Correcting alpha.water
Phase-1 volume fraction = 0.623625  Min(alpha.water) = -6.01395e-14  Max(alpha.water) = 1
Updating StokesII wave model for patch inlet
smoothSolver:  Solving for alpha.water, Initial residual = 5.12557e-06, Final residual = 5.96895e-11, No Iterations 1
Phase-1 volume fraction = 0.623624  Min(alpha.water) = -5.75396e-25  Max(alpha.water) = 1
MULES: Correcting alpha.water
MULES: Correcting alpha.water
Phase-1 volume fraction = 0.623624  Min(alpha.water) = -4.1548e-14  Max(alpha.water) = 1
Updating StokesII wave model for patch inlet
DILUPBiCGStab:  Solving for p_rgh, Initial residual = 0.00152345, Final residual = 1.46741e-05, No Iterations 4
time step continuity errors : sum local = 9.72552e-08, global = 8.31865e-08, cumulative = 1.90938e-07
DILUPBiCGStab:  Solving for p_rgh, Initial residual = 2.54322e-05, Final residual = 2.38536e-07, No Iterations 29
time step continuity errors : sum local = 1.96337e-09, global = 1.94964e-09, cumulative = 1.92887e-07
DILUPBiCGStab:  Solving for p_rgh, Initial residual = 1.02794e-06, Final residual = 9.51032e-10, No Iterations 54
time step continuity errors : sum local = 7.88111e-12, global = 3.08103e-12, cumulative = 1.9289e-07
ExecutionTime = 119.29 s  ClockTime = 116 s

Courant Number mean: 0.00194141 max: 0.434557
Interface Courant Number mean: 2.1934e-05 max: 0.0483342
deltaT = 0.00308666
Time = 0.19074

PIMPLE: iteration 1
forces forces:
    rho: rho
    Not including porosity effects

Restraint moorDynR2: MoorDyn module saved at t = 0.187653 s
X[6]: (-5.5455e-09 0 -0.0171859), (0 -1.36866e-07 0)
XD[6]: (-2.48286e-07 0 -0.0171741), (0 -2.09032e-06 0)
0.19074: force (6.27148e-07 0 -1.70871), moment (0 7.54893e-08 0)
6-DoF rigid body motion
    Centre of rotation: (-6.33251e-09 0 -0.0172388)
    Centre of mass: (-6.33251e-09 0 -0.0172388)
    Orientation: (1 0 -1.43424e-07 0 1 0 1.43424e-07 0 1)
    Linear velocity: (-2.61655e-07 0 -0.017117)
    Angular velocity: (0 -2.15908e-06 0)
inverseDistance : detected 2 mesh regions
    zone:0 nCells:80000  voxels:(284 1 284) bb:(-3.50001 -0.10001 -0.50001) (6.50001 0.10001 0.30001)
    zone:1 nCells:960  voxels:(284 1 284) bb:(-0.200001 -0.100001 -0.182239) (0.200001 0.100001 0.147762)
Overset analysis : nCells : 80960
    calculated   : 80444
    interpolated : 208 (from local:208  mixed local/remote:0  remote:0)
    hole         : 308

Updating StokesII wave model for patch inlet
Updating shallowWaterAbsorption wave model for patch outlet
Execution time for mesh.update() = 0.55 s
Updating StokesII wave model for patch inlet
smoothSolver:  Solving for alpha.water, Initial residual = 5.14899e-06, Final residual = 5.77291e-11, No Iterations 1
Phase-1 volume fraction = 0.623623  Min(alpha.water) = -4.61794e-25  Max(alpha.water) = 1
MULES: Correcting alpha.water
MULES: Correcting alpha.water
Phase-1 volume fraction = 0.623623  Min(alpha.water) = -4.33178e-14  Max(alpha.water) = 1
Updating StokesII wave model for patch inlet
smoothSolver:  Solving for alpha.water, Initial residual = 5.14627e-06, Final residual = 5.8017e-11, No Iterations 1
Phase-1 volume fraction = 0.623623  Min(alpha.water) = -3.24429e-25  Max(alpha.water) = 1
MULES: Correcting alpha.water
MULES: Correcting alpha.water
Phase-1 volume fraction = 0.623623  Min(alpha.water) = -4.42868e-14  Max(alpha.water) = 1
Updating StokesII wave model for patch inlet
DILUPBiCGStab:  Solving for p_rgh, Initial residual = 0.00155113, Final residual = 1.39489e-05, No Iterations 3
time step continuity errors : sum local = 9.26681e-08, global = 5.82986e-08, cumulative = 2.51189e-07
DILUPBiCGStab:  Solving for p_rgh, Initial residual = 2.30314e-05, Final residual = 2.02217e-07, No Iterations 28
time step continuity errors : sum local = 1.67393e-09, global = 1.56075e-09, cumulative = 2.5275e-07
DILUPBiCGStab:  Solving for p_rgh, Initial residual = 9.25408e-07, Final residual = 9.9418e-10, No Iterations 59
time step continuity errors : sum local = 8.299e-12, global = 5.69104e-12, cumulative = 2.52755e-07
ExecutionTime = 122.39 s  ClockTime = 119 s

Courant Number mean: 0.00194874 max: 0.423759
Interface Courant Number mean: 2.2943e-05 max: 0.0509351
deltaT = 0.00308666
Time = 0.193827

PIMPLE: iteration 1
forces forces:
    rho: rho
    Not including porosity effects

Restraint moorDynR2: MoorDyn module saved at t = 0.19074 s
X[6]: (-6.33251e-09 0 -0.0172388), (0 -1.43424e-07 0)
XD[6]: (-2.61655e-07 0 -0.017117), (0 -2.15908e-06 0)
0.193827: force (6.85076e-07 0 -1.70981), moment (0 8.10897e-08 0)
6-DoF rigid body motion
    Centre of rotation: (-7.16204e-09 0 -0.0172915)
    Centre of mass: (-7.16204e-09 0 -0.0172915)
    Orientation: (1 0 -1.50198e-07 0 1 0 1.50198e-07 0 1)
    Linear velocity: (-2.75836e-07 0 -0.0170485)
    Angular velocity: (0 -2.23046e-06 0)
inverseDistance : detected 2 mesh regions
    zone:0 nCells:80000  voxels:(284 1 284) bb:(-3.50001 -0.10001 -0.50001) (6.50001 0.10001 0.30001)
    zone:1 nCells:960  voxels:(284 1 284) bb:(-0.200001 -0.100001 -0.182292) (0.200001 0.100001 0.147709)
Overset analysis : nCells : 80960
    calculated   : 80444
    interpolated : 208 (from local:208  mixed local/remote:0  remote:0)
    hole         : 308

Updating StokesII wave model for patch inlet
Updating shallowWaterAbsorption wave model for patch outlet
Execution time for mesh.update() = 0.55 s
Updating StokesII wave model for patch inlet
smoothSolver:  Solving for alpha.water, Initial residual = 5.16799e-06, Final residual = 5.6254e-11, No Iterations 1
Phase-1 volume fraction = 0.623622  Min(alpha.water) = -1.64112e-25  Max(alpha.water) = 1
MULES: Correcting alpha.water
MULES: Correcting alpha.water
Phase-1 volume fraction = 0.623622  Min(alpha.water) = -2.74139e-16  Max(alpha.water) = 1
Updating StokesII wave model for patch inlet
smoothSolver:  Solving for alpha.water, Initial residual = 5.16536e-06, Final residual = 5.65429e-11, No Iterations 1
Phase-1 volume fraction = 0.623621  Min(alpha.water) = -8.77595e-32  Max(alpha.water) = 1
MULES: Correcting alpha.water
MULES: Correcting alpha.water
Phase-1 volume fraction = 0.623621  Min(alpha.water) = -2.8145e-16  Max(alpha.water) = 1
Updating StokesII wave model for patch inlet
DILUPBiCGStab:  Solving for p_rgh, Initial residual = 0.00157685, Final residual = 1.46536e-05, No Iterations 3
time step continuity errors : sum local = 1.01132e-07, global = 4.65104e-08, cumulative = 2.99266e-07
DILUPBiCGStab:  Solving for p_rgh, Initial residual = 2.21809e-05, Final residual = 2.19991e-07, No Iterations 27
time step continuity errors : sum local = 1.83572e-09, global = 1.75976e-09, cumulative = 3.01026e-07
DILUPBiCGStab:  Solving for p_rgh, Initial residual = 9.06858e-07, Final residual = 9.60469e-10, No Iterations 56
time step continuity errors : sum local = 8.14763e-12, global = 3.90942e-12, cumulative = 3.0103e-07
ExecutionTime = 123.34 s  ClockTime = 120 s

Courant Number mean: 0.0019595 max: 0.415587
Interface Courant Number mean: 2.40818e-05 max: 0.0532799
deltaT = 0.00308666
Time = 0.196913

PIMPLE: iteration 1
forces forces:
    rho: rho
    Not including porosity effects

Restraint moorDynR2: MoorDyn module saved at t = 0.193827 s
X[6]: (-7.16204e-09 0 -0.0172915), (0 -1.50198e-07 0)
XD[6]: (-2.75836e-07 0 -0.0170485), (0 -2.23046e-06 0)
0.196913: force (7.4697e-07 0 -1.71103), moment (0 8.70636e-08 0)
6-DoF rigid body motion
    Centre of rotation: (-8.06129e-09 0 -0.017344)
    Centre of mass: (-8.06129e-09 0 -0.017344)
    Orientation: (1 0 -1.57191e-07 0 1 0 1.57191e-07 0 1)
    Linear velocity: (-3.06831e-07 0 -0.0169697)
    Angular velocity: (0 -2.30027e-06 0)
inverseDistance : detected 2 mesh regions
    zone:0 nCells:80000  voxels:(284 1 284) bb:(-3.50001 -0.10001 -0.50001) (6.50001 0.10001 0.30001)
    zone:1 nCells:960  voxels:(284 1 284) bb:(-0.200001 -0.100001 -0.182345) (0.200001 0.100001 0.147657)
Overset analysis : nCells : 80960
    calculated   : 80444
    interpolated : 208 (from local:208  mixed local/remote:0  remote:0)
    hole         : 308

Updating StokesII wave model for patch inlet
Updating shallowWaterAbsorption wave model for patch outlet
Execution time for mesh.update() = 0.55 s
Updating StokesII wave model for patch inlet
smoothSolver:  Solving for alpha.water, Initial residual = 5.18306e-06, Final residual = 5.53992e-11, No Iterations 1
Phase-1 volume fraction = 0.623621  Min(alpha.water) = -8.77595e-32  Max(alpha.water) = 1
MULES: Correcting alpha.water
MULES: Correcting alpha.water
Phase-1 volume fraction = 0.623621  Min(alpha.water) = -1.94533e-15  Max(alpha.water) = 1
Updating StokesII wave model for patch inlet
smoothSolver:  Solving for alpha.water, Initial residual = 5.18051e-06, Final residual = 5.56831e-11, No Iterations 1
Phase-1 volume fraction = 0.62362  Min(alpha.water) = -8.77595e-32  Max(alpha.water) = 1
MULES: Correcting alpha.water
MULES: Correcting alpha.water
Phase-1 volume fraction = 0.62362  Min(alpha.water) = -2.35871e-15  Max(alpha.water) = 1
Updating StokesII wave model for patch inlet
DILUPBiCGStab:  Solving for p_rgh, Initial residual = 0.00158216, Final residual = 1.20772e-05, No Iterations 3
time step continuity errors : sum local = 8.77612e-08, global = 2.21719e-08, cumulative = 3.23201e-07
DILUPBiCGStab:  Solving for p_rgh, Initial residual = 1.83929e-05, Final residual = 1.58789e-07, No Iterations 25
time step continuity errors : sum local = 1.33316e-09, global = 1.19164e-09, cumulative = 3.24393e-07
DILUPBiCGStab:  Solving for p_rgh, Initial residual = 7.153e-07, Final residual = 8.09073e-10, No Iterations 51
time step continuity errors : sum local = 6.86382e-12, global = 5.11797e-12, cumulative = 3.24398e-07
ExecutionTime = 124.27 s  ClockTime = 121 s

Courant Number mean: 0.00197196 max: 0.409449
Interface Courant Number mean: 2.40717e-05 max: 0.0548101
deltaT = 0.00308666
Time = 0.2

PIMPLE: iteration 1
forces forces:
    rho: rho
    Not including porosity effects

Restraint moorDynR2: MoorDyn module saved at t = 0.196913 s
X[6]: (-8.06129e-09 0 -0.017344), (0 -1.57191e-07 0)
XD[6]: (-3.06831e-07 0 -0.0169697), (0 -2.30027e-06 0)
0.2: force (8.5066e-07 0 -1.71235), moment (0 9.59132e-08 0)
6-DoF rigid body motion
    Centre of rotation: (-9.08013e-09 0 -0.0173963)
    Centre of mass: (-9.08013e-09 0 -0.0173963)
    Orientation: (1 0 -1.64398e-07 0 1 0 1.64398e-07 0 1)
    Linear velocity: (-3.53323e-07 0 -0.0168807)
    Angular velocity: (0 -2.36958e-06 -0)
inverseDistance : detected 2 mesh regions
    zone:0 nCells:80000  voxels:(284 1 284) bb:(-3.50001 -0.10001 -0.50001) (6.50001 0.10001 0.30001)
    zone:1 nCells:960  voxels:(284 1 284) bb:(-0.200001 -0.100001 -0.182397) (0.200001 0.100001 0.147604)
Overset analysis : nCells : 80960
    calculated   : 80444
    interpolated : 208 (from local:208  mixed local/remote:0  remote:0)
    hole         : 308

Updating StokesII wave model for patch inlet
Updating shallowWaterAbsorption wave model for patch outlet
Execution time for mesh.update() = 0.54 s
Updating StokesII wave model for patch inlet
smoothSolver:  Solving for alpha.water, Initial residual = 5.19416e-06, Final residual = 5.35464e-11, No Iterations 1
Phase-1 volume fraction = 0.623619  Min(alpha.water) = -8.77595e-32  Max(alpha.water) = 1
MULES: Correcting alpha.water
MULES: Correcting alpha.water
Phase-1 volume fraction = 0.623619  Min(alpha.water) = -3.22761e-15  Max(alpha.water) = 1
Updating StokesII wave model for patch inlet
smoothSolver:  Solving for alpha.water, Initial residual = 5.19169e-06, Final residual = 5.38243e-11, No Iterations 1
Phase-1 volume fraction = 0.623619  Min(alpha.water) = -8.77595e-32  Max(alpha.water) = 1
MULES: Correcting alpha.water
MULES: Correcting alpha.water
Phase-1 volume fraction = 0.623619  Min(alpha.water) = -3.87227e-15  Max(alpha.water) = 1
Updating StokesII wave model for patch inlet
DILUPBiCGStab:  Solving for p_rgh, Initial residual = 0.00158554, Final residual = 1.09286e-05, No Iterations 3
time step continuity errors : sum local = 8.09131e-08, global = 9.29465e-09, cumulative = 3.33693e-07
DILUPBiCGStab:  Solving for p_rgh, Initial residual = 1.63285e-05, Final residual = 1.45891e-07, No Iterations 25
time step continuity errors : sum local = 1.25895e-09, global = 1.21558e-09, cumulative = 3.34908e-07
DILUPBiCGStab:  Solving for p_rgh, Initial residual = 6.4653e-07, Final residual = 5.63712e-10, No Iterations 55
time step continuity errors : sum local = 4.80652e-12, global = 3.22954e-12, cumulative = 3.34912e-07
ExecutionTime = 125.89 s  ClockTime = 122 s

End

